
 Fire Dynamics Simulator

 Current Date     : February 17, 2021  16:31:49
 Revision         : FDS6.7.5-0-g71f025606-release
 Revision Date    : Thu Aug 20 16:19:01 2020 -0400
 Compiler         : Intel ifort 19.1.1.216
 Compilation Date : Fri 08/21/2020  04:51 PM

 MPI Enabled;    Number of MPI Processes:       1
 OpenMP Enabled; Number of OpenMP Threads:      4

 MPI version: 3.1
 MPI library version: Intel(R) MPI Library 2019 Update 7 for Windows* OS


 Job TITLE        : 2D Vortex Simulation, Mesh Size = 80
 Job ID string    : vort2d_80


 Grid Dimensions, Mesh     1

   Cells in the X Direction            80
   Cells in the Y Direction             1
   Cells in the Z Direction            80
   Number of Grid Cells              6400


 Physical Dimensions, Mesh     1

   Length (m)                       0.311
   Width  (m)                       0.004
   Height (m)                       0.311
   Initial Time Step (s)            0.000

Total Number of Grid Cells          6400


 Miscellaneous Parameters

   Simulation Start Time (s)          0.0
   Simulation End Time (s)            0.0
   Ambient Temperature (C):         20.00


 Mass Fraction Transformation Matrix to Convert Species Mixtures (Columns) to Primitive Species (Rows)

                         AIR     
   AIR                   1.000000


 Primitive Species Information

   AIR
   Gas Species
   Molecular Weight (g/mol)            28.01340
   Ambient Density (kg/m^3)            1.165
   Enthalpy of Formation (J/kg)        0.00E+00


 Tracked (Lumped) Species Information

   AIR
   Molecular Weight (g/mol)            28.01340
   Ambient Density (kg/m^3)            1.165
   Initial Mass Fraction               1.000
   Enthalpy of Formation (J/kg)      0.00E+00

   Sub Species                    Mass Fraction     Mole Fraction
   AIR                            1.000000E+00      1.000000E+00
 
     Viscosity (kg/m/s) Ambient,  293 K:  0.00E+00
                                  500 K:  0.00E+00
                                 1000 K:  0.00E+00
                                 1500 K:  0.00E+00
   Therm. Cond. (W/m/K) Ambient,  293 K:  0.00E+00
                                  500 K:  0.00E+00
                                 1000 K:  0.00E+00
                                 1500 K:  0.00E+00
        Enthalpy (J/kg) Ambient,  293 K:  3.05E+05
                                  500 K:  5.19E+05
                                 1000 K:  1.04E+06
                                 1500 K:  1.56E+06
    Spec. Heat (J/kg/K) Ambient,  293 K:  1.04E+03
                                  500 K:  1.04E+03
                                 1000 K:  1.04E+03
                                 1500 K:  1.04E+03
   Diff. Coeff. (m^2/s) Ambient,  293 K:  1.99E-05
                                  500 K:  4.93E-05
                                 1000 K:  1.57E-04
                                 1500 K:  3.07E-04


 Material Information


 Surface Conditions

   0 INERT (DEFAULT)

   1 OPEN
     Passive Vent to Atmosphere

   2 MIRROR
     Symmetry Plane

   3 INTERPOLATED

   4 PERIODIC

   5 HVAC

   6 MASSLESS TRACER

   7 DROPLET

   8 EVACUATION_OUTFLOW
     Normal Velocity (m/s)         0.000

   9 MASSLESS TARGET

  10 PERIODIC FLOW ONLY


 Slice File Information, Mesh     1

   Sampling Interval (s)             0.000

   1 Nodes:   0  80   1   1   0  80, Quantity: PRESSURE
   2 Nodes:   0  80   1   1   0  80, Quantity: VELOCITY
   3 Nodes:   0  80   1   1   0  80, Quantity: U-VELOCITY
   4 Nodes:   0  80   1   1   0  80, Quantity: W-VELOCITY
   5 Nodes:   0  80   1   1   0  80, Quantity: VORTICITY Y
   6 Nodes:   0  80   1   1   0  80, Quantity: U-VELOCITY
   7 Nodes:   0  80   1   1   0  80, Quantity: W-VELOCITY
 
 

 Run Time Diagnostics

       Time Step       1   February 17, 2021  16:31:49
       Step Size:    0.556E-04 s, Total Time:    0.00006 s
       Pressure Iterations:      1
       Maximum Velocity Error:  0.85E-06 on Mesh   1 at (   0   1  48)
       Maximum Pressure Error:  0.37E-07 on Mesh   1 at (  73   1  35)
       ---------------------------------------------------------------
       Max CFL number:  0.53E+00 at (  38,   1,  38)
       Max divergence:  0.18E-11 at (  67,   1,  67)
       Min divergence: -0.18E-11 at (  26,   1,  19)
       Max VN number:   0.00E+00 at (  80,   1,  80)
 
       Time Step       2   February 17, 2021  16:31:49
       Step Size:    0.556E-04 s, Total Time:     0.0001 s
       Pressure Iterations:      1
       Maximum Velocity Error:  0.16E-05 on Mesh   1 at (   0   1  49)
       Maximum Pressure Error:  0.45E-07 on Mesh   1 at (  46   1  18)
       ---------------------------------------------------------------
       Max CFL number:  0.53E+00 at (  38,   1,  38)
       Max divergence:  0.18E-11 at (  73,   1,  54)
       Min divergence: -0.18E-11 at (  51,   1,  72)
       Max VN number:   0.00E+00 at (  80,   1,  80)
 
       Time Step       3   February 17, 2021  16:31:49
       Step Size:    0.556E-04 s, Total Time:     0.0002 s
       Pressure Iterations:      1
       Maximum Velocity Error:  0.21E-05 on Mesh   1 at (   0   1  49)
       Maximum Pressure Error:  0.50E-07 on Mesh   1 at (  16   1  60)
       ---------------------------------------------------------------
       Max CFL number:  0.53E+00 at (  39,   1,  38)
       Max divergence:  0.18E-11 at (  10,   1,  63)
       Min divergence: -0.19E-11 at (  70,   1,  66)
       Max VN number:   0.00E+00 at (  80,   1,  80)
 
       Time Step       4   February 17, 2021  16:31:49
       Step Size:    0.556E-04 s, Total Time:     0.0002 s
       Pressure Iterations:      1
       Maximum Velocity Error:  0.24E-05 on Mesh   1 at (   0   1  49)
       Maximum Pressure Error:  0.47E-07 on Mesh   1 at (  39   1  18)
       ---------------------------------------------------------------
       Max CFL number:  0.53E+00 at (  39,   1,  38)
       Max divergence:  0.18E-11 at (  43,   1,  63)
       Min divergence: -0.18E-11 at (  43,   1,  68)
       Max VN number:   0.00E+00 at (  80,   1,  80)
 
       Time Step       5   February 17, 2021  16:31:49
       Step Size:    0.556E-04 s, Total Time:     0.0003 s
       Pressure Iterations:      1
       Maximum Velocity Error:  0.25E-05 on Mesh   1 at (   0   1  49)
       Maximum Pressure Error:  0.42E-07 on Mesh   1 at (  28   1   5)
       ---------------------------------------------------------------
       Max CFL number:  0.53E+00 at (  40,   1,  38)
       Max divergence:  0.18E-11 at (  60,   1,  79)
       Min divergence: -0.26E-11 at (  27,   1,  33)
       Max VN number:   0.00E+00 at (  80,   1,  80)
 
       Time Step       6   February 17, 2021  16:31:49
       Step Size:    0.556E-04 s, Total Time:     0.0003 s
       Pressure Iterations:      1
       Maximum Velocity Error:  0.24E-05 on Mesh   1 at (   0   1  49)
       Maximum Pressure Error:  0.46E-07 on Mesh   1 at (  50   1  53)
       ---------------------------------------------------------------
       Max CFL number:  0.53E+00 at (  40,   1,  38)
       Max divergence:  0.18E-11 at (  25,   1,  56)
       Min divergence: -0.18E-11 at (  47,   1,   1)
       Max VN number:   0.00E+00 at (  80,   1,  80)
 
       Time Step       7   February 17, 2021  16:31:49
       Step Size:    0.556E-04 s, Total Time:     0.0004 s
       Pressure Iterations:      1
       Maximum Velocity Error:  0.22E-05 on Mesh   1 at (   0   1  50)
       Maximum Pressure Error:  0.45E-07 on Mesh   1 at (  71   1  33)
       ---------------------------------------------------------------
       Max CFL number:  0.53E+00 at (  41,   1,  38)
       Max divergence:  0.23E-11 at (  52,   1,  77)
       Min divergence: -0.18E-11 at (  46,   1,  37)
       Max VN number:   0.00E+00 at (  80,   1,  80)
 
       Time Step       8   February 17, 2021  16:31:50
       Step Size:    0.556E-04 s, Total Time:     0.0004 s
       Pressure Iterations:      1
       Maximum Velocity Error:  0.19E-05 on Mesh   1 at (   0   1  51)
       Maximum Pressure Error:  0.43E-07 on Mesh   1 at (  57   1  42)
       ---------------------------------------------------------------
       Max CFL number:  0.53E+00 at (  41,   1,  38)
       Max divergence:  0.18E-11 at (  77,   1,  18)
       Min divergence: -0.18E-11 at (  68,   1,  71)
       Max VN number:   0.00E+00 at (  80,   1,  80)
 
       Time Step       9   February 17, 2021  16:31:50
       Step Size:    0.556E-04 s, Total Time:     0.0005 s
       Pressure Iterations:      1
       Maximum Velocity Error:  0.16E-05 on Mesh   1 at (   0   1  53)
       Maximum Pressure Error:  0.43E-07 on Mesh   1 at (  38   1  16)
       ---------------------------------------------------------------
       Max CFL number:  0.53E+00 at (  42,   1,  38)
       Max divergence:  0.18E-11 at (  43,   1,  38)
       Min divergence: -0.18E-11 at (  73,   1,  15)
       Max VN number:   0.00E+00 at (  80,   1,  80)
 
       Time Step      10   February 17, 2021  16:31:50
       Step Size:    0.556E-04 s, Total Time:     0.0006 s
       Pressure Iterations:      1
       Maximum Velocity Error:  0.14E-05 on Mesh   1 at (  39   1   0)
       Maximum Pressure Error:  0.40E-07 on Mesh   1 at (   5   1  22)
       ---------------------------------------------------------------
       Max CFL number:  0.53E+00 at (  42,   1,  38)
       Max divergence:  0.18E-11 at (  10,   1,  61)
       Min divergence: -0.18E-11 at (  38,   1,  65)
       Max VN number:   0.00E+00 at (  80,   1,  80)
 
       Time Step      20   February 17, 2021  16:31:51
       Step Size:    0.556E-04 s, Total Time:      0.001 s
       Pressure Iterations:      1
       Maximum Velocity Error:  0.23E-05 on Mesh   1 at (   0   1  36)
       Maximum Pressure Error:  0.43E-07 on Mesh   1 at (   9   1  64)
       ---------------------------------------------------------------
       Max CFL number:  0.53E+00 at (  47,   1,  38)
       Max divergence:  0.18E-11 at (  16,   1,  43)
       Min divergence: -0.18E-11 at (   4,   1,  50)
       Max VN number:   0.00E+00 at (  80,   1,  80)
 
       Time Step      30   February 17, 2021  16:31:51
       Step Size:    0.556E-04 s, Total Time:      0.002 s
       Pressure Iterations:      1
       Maximum Velocity Error:  0.56E-05 on Mesh   1 at (   0   1  37)
       Maximum Pressure Error:  0.42E-07 on Mesh   1 at (  79   1  11)
       ---------------------------------------------------------------
       Max CFL number:  0.53E+00 at (  52,   1,  38)
       Max divergence:  0.18E-11 at (  67,   1,  46)
       Min divergence: -0.18E-11 at (  78,   1,   3)
       Max VN number:   0.00E+00 at (  80,   1,  80)
 
       Time Step      40   February 17, 2021  16:31:52
       Step Size:    0.556E-04 s, Total Time:      0.002 s
       Pressure Iterations:      1
       Maximum Velocity Error:  0.40E-04 on Mesh   1 at (   0   1  37)
       Maximum Pressure Error:  0.49E-07 on Mesh   1 at (  74   1  42)
       ---------------------------------------------------------------
       Max CFL number:  0.53E+00 at (  57,   1,  38)
       Max divergence:  0.18E-11 at (  30,   1,  18)
       Min divergence: -0.18E-11 at (  19,   1,  66)
       Max VN number:   0.00E+00 at (  80,   1,  80)
 
       Time Step      50   February 17, 2021  16:31:53
       Step Size:    0.556E-04 s, Total Time:      0.003 s
       Pressure Iterations:      1
       Maximum Velocity Error:  0.12E-02 on Mesh   1 at (   0   1  37)
       Maximum Pressure Error:  0.44E-07 on Mesh   1 at (  20   1  41)
       ---------------------------------------------------------------
       Max CFL number:  0.53E+00 at (  62,   1,  38)
       Max divergence:  0.21E-11 at (  19,   1,  14)
       Min divergence: -0.21E-11 at (  18,   1,  14)
       Max VN number:   0.00E+00 at (  80,   1,  80)
 
       Time Step      60   February 17, 2021  16:31:54
       Step Size:    0.556E-04 s, Total Time:      0.003 s
       Pressure Iterations:      4
       Maximum Velocity Error:  0.15E-02 on Mesh   1 at (   0   1  36)
       Maximum Pressure Error:  0.46E-07 on Mesh   1 at (  63   1  64)
       ---------------------------------------------------------------
       Max CFL number:  0.53E+00 at (  66,   1,  38)
       Max divergence:  0.22E-11 at (  54,   1,  15)
       Min divergence: -0.19E-11 at (  55,   1,  15)
       Max VN number:   0.00E+00 at (  80,   1,  80)
 
       Time Step      70   February 17, 2021  16:31:55
       Step Size:    0.556E-04 s, Total Time:      0.004 s
       Pressure Iterations:      7
       Maximum Velocity Error:  0.18E-02 on Mesh   1 at (   0   1  34)
       Maximum Pressure Error:  0.42E-07 on Mesh   1 at (  40   1  28)
       ---------------------------------------------------------------
       Max CFL number:  0.53E+00 at (  71,   1,  38)
       Max divergence:  0.18E-11 at (  76,   1,  37)
       Min divergence: -0.25E-11 at (  56,   1,  41)
       Max VN number:   0.00E+00 at (  80,   1,  80)
 
       Time Step      80   February 17, 2021  16:31:56
       Step Size:    0.556E-04 s, Total Time:      0.004 s
       Pressure Iterations:      6
       Maximum Velocity Error:  0.15E-02 on Mesh   1 at (   0   1  46)
       Maximum Pressure Error:  0.46E-07 on Mesh   1 at (   6   1  53)
       ---------------------------------------------------------------
       Max CFL number:  0.53E+00 at (  76,   1,  38)
       Max divergence:  0.18E-11 at (   6,   1,  53)
       Min divergence: -0.18E-11 at (  32,   1,  12)
       Max VN number:   0.00E+00 at (  80,   1,  80)
 
       Time Step      90   February 17, 2021  16:31:57
       Step Size:    0.556E-04 s, Total Time:      0.005 s
       Pressure Iterations:      9
       Maximum Velocity Error:  0.16E-02 on Mesh   1 at (   0   1  47)
       Maximum Pressure Error:  0.42E-07 on Mesh   1 at (   9   1   4)
       ---------------------------------------------------------------
       Max CFL number:  0.53E+00 at (   1,   1,  38)
       Max divergence:  0.18E-11 at (  58,   1,   6)
       Min divergence: -0.18E-11 at (  39,   1,  57)
       Max VN number:   0.00E+00 at (  80,   1,  80)
 
       Time Step     100   February 17, 2021  16:31:59
       Step Size:    0.556E-04 s, Total Time:      0.006 s
       Pressure Iterations:      5
       Maximum Velocity Error:  0.16E-02 on Mesh   1 at (   0   1  36)
       Maximum Pressure Error:  0.42E-07 on Mesh   1 at (  42   1  11)
       ---------------------------------------------------------------
       Max CFL number:  0.53E+00 at (   6,   1,  38)
       Max divergence:  0.23E-11 at (  28,   1,  80)
       Min divergence: -0.18E-11 at (  15,   1,   2)
       Max VN number:   0.00E+00 at (  80,   1,  80)
 
       Time Step     180   February 17, 2021  16:32:06
       Step Size:    0.527E-04 s, Total Time:       0.01 s
       Pressure Iterations:      1
       Maximum Velocity Error:  0.20E-03 on Mesh   1 at (   0   1  42)
       Maximum Pressure Error:  0.48E-07 on Mesh   1 at (  50   1  29)
       ---------------------------------------------------------------
       Max CFL number:  0.50E+00 at (  45,   1,  37)
       Max divergence:  0.18E-11 at (  44,   1,  53)
       Min divergence: -0.18E-11 at (  50,   1,  56)
       Max VN number:   0.00E+00 at (  80,   1,  80)
 


 Time Stepping Wall Clock Time (s):       17.200
 Total Elapsed Wall Clock Time (s):       17.750

STOP: FDS completed successfully (CHID: vort2d_80)
