
 Fire Dynamics Simulator

 Current Date     : November  6, 2020  13:37:31
 Revision         : FDS6.7.5-0-g71f025606-release
 Revision Date    : Thu Aug 20 16:19:01 2020 -0400
 Compiler         : Intel ifort 19.1.1.216
 Compilation Date : Fri 08/21/2020  04:51 PM

 MPI Enabled;    Number of MPI Processes:       1
 OpenMP Enabled; Number of OpenMP Threads:      4

 MPI version: 3.1
 MPI library version: Intel(R) MPI Library 2019 Update 7 for Windows* OS


 Job TITLE        : 2D Vortex Simulation, Mesh Size = 80
 Job ID string    : vort3d_80


 Grid Dimensions, Mesh     1

   Cells in the X Direction            20
   Cells in the Y Direction             1
   Cells in the Z Direction            20
   Number of Grid Cells               400


 Physical Dimensions, Mesh     1

   Length (m)                       0.311
   Width  (m)                       0.004
   Height (m)                       0.311
   Initial Time Step (s)            0.100

Total Number of Grid Cells           400


 Miscellaneous Parameters

   Simulation Start Time (s)          0.0
   Simulation End Time (s)           10.0
   Ambient Temperature (C):         20.00


 Mass Fraction Transformation Matrix to Convert Species Mixtures (Columns) to Primitive Species (Rows)

                         AIR     
   AIR                   1.000000


 Primitive Species Information

   AIR
   Gas Species
   Molecular Weight (g/mol)            28.01340
   Ambient Density (kg/m^3)            1.165
   Enthalpy of Formation (J/kg)        0.00E+00


 Tracked (Lumped) Species Information

   AIR
   Molecular Weight (g/mol)            28.01340
   Ambient Density (kg/m^3)            1.165
   Initial Mass Fraction               1.000
   Enthalpy of Formation (J/kg)      0.00E+00

   Sub Species                    Mass Fraction     Mole Fraction
   AIR                            1.000000E+00      1.000000E+00
 
     Viscosity (kg/m/s) Ambient,  293 K:  0.00E+00
                                  500 K:  0.00E+00
                                 1000 K:  0.00E+00
                                 1500 K:  0.00E+00
   Therm. Cond. (W/m/K) Ambient,  293 K:  0.00E+00
                                  500 K:  0.00E+00
                                 1000 K:  0.00E+00
                                 1500 K:  0.00E+00
        Enthalpy (J/kg) Ambient,  293 K:  3.05E+05
                                  500 K:  5.19E+05
                                 1000 K:  1.04E+06
                                 1500 K:  1.56E+06
    Spec. Heat (J/kg/K) Ambient,  293 K:  1.04E+03
                                  500 K:  1.04E+03
                                 1000 K:  1.04E+03
                                 1500 K:  1.04E+03
   Diff. Coeff. (m^2/s) Ambient,  293 K:  1.99E-05
                                  500 K:  4.93E-05
                                 1000 K:  1.57E-04
                                 1500 K:  3.07E-04


 Material Information


 Surface Conditions

   0 INERT (DEFAULT)

   1 OPEN
     Passive Vent to Atmosphere

   2 MIRROR
     Symmetry Plane

   3 INTERPOLATED

   4 PERIODIC

   5 HVAC

   6 MASSLESS TRACER

   7 DROPLET

   8 EVACUATION_OUTFLOW
     Normal Velocity (m/s)         0.000

   9 MASSLESS TARGET

  10 PERIODIC FLOW ONLY


 PLOT3D Information

   Sampling Interval (s)               1.0

   1 Quantity: TEMPERATURE
   2 Quantity: U-VELOCITY
   3 Quantity: V-VELOCITY
   4 Quantity: W-VELOCITY
   5 Quantity: HRRPUV
 
 

 Run Time Diagnostics

       Time Step       1   November  6, 2020  13:37:31
       Step Size:    0.185E-04 s, Total Time:    0.00002 s
       Pressure Iterations:      1
       Maximum Velocity Error:  0.21E-05 on Mesh   1 at (   0   1  13)
       Maximum Pressure Error:  0.21E-08 on Mesh   1 at (   2   1  13)
       ---------------------------------------------------------------
       Max CFL number:  0.44E-01 at (  10,   1,  10)
       Max divergence:  0.45E-12 at (   3,   1,   8)
       Min divergence: -0.43E-12 at (   8,   1,  18)
       Max VN number:   0.00E+00 at (  20,   1,  20)
 
       Time Step       2   November  6, 2020  13:37:31
       Step Size:    0.204E-04 s, Total Time:    0.00004 s
       Pressure Iterations:      1
       Maximum Velocity Error:  0.30E-05 on Mesh   1 at (   0   1  13)
       Maximum Pressure Error:  0.26E-08 on Mesh   1 at (   3   1  20)
       ---------------------------------------------------------------
       Max CFL number:  0.49E-01 at (  10,   1,  10)
       Max divergence:  0.41E-12 at (   4,   1,  13)
       Min divergence: -0.42E-12 at (   7,   1,   5)
       Max VN number:   0.00E+00 at (  20,   1,  20)
 
       Time Step       3   November  6, 2020  13:37:31
       Step Size:    0.224E-04 s, Total Time:    0.00006 s
       Pressure Iterations:      1
       Maximum Velocity Error:  0.27E-05 on Mesh   1 at (   0   1  13)
       Maximum Pressure Error:  0.23E-08 on Mesh   1 at (  11   1   8)
       ---------------------------------------------------------------
       Max CFL number:  0.54E-01 at (  10,   1,  10)
       Max divergence:  0.40E-12 at (  18,   1,  13)
       Min divergence: -0.45E-12 at (  14,   1,   5)
       Max VN number:   0.00E+00 at (  20,   1,  20)
 
       Time Step       4   November  6, 2020  13:37:31
       Step Size:    0.247E-04 s, Total Time:    0.00009 s
       Pressure Iterations:      1
       Maximum Velocity Error:  0.19E-05 on Mesh   1 at (   0   1  14)
       Maximum Pressure Error:  0.23E-08 on Mesh   1 at (  12   1   7)
       ---------------------------------------------------------------
       Max CFL number:  0.59E-01 at (  10,   1,  10)
       Max divergence:  0.42E-12 at (   9,   1,   1)
       Min divergence: -0.44E-12 at (   7,   1,  14)
       Max VN number:   0.00E+00 at (  20,   1,  20)
 
       Time Step       5   November  6, 2020  13:37:31
       Step Size:    0.271E-04 s, Total Time:     0.0001 s
       Pressure Iterations:      1
       Maximum Velocity Error:  0.11E-05 on Mesh   1 at (   0   1  15)
       Maximum Pressure Error:  0.22E-08 on Mesh   1 at (   3   1   9)
       ---------------------------------------------------------------
       Max CFL number:  0.65E-01 at (  10,   1,  10)
       Max divergence:  0.43E-12 at (   9,   1,  11)
       Min divergence: -0.43E-12 at (   8,   1,  11)
       Max VN number:   0.00E+00 at (  20,   1,  20)
 
       Time Step       6   November  6, 2020  13:37:31
       Step Size:    0.299E-04 s, Total Time:     0.0001 s
       Pressure Iterations:      1
       Maximum Velocity Error:  0.69E-06 on Mesh   1 at (   0   1  17)
       Maximum Pressure Error:  0.21E-08 on Mesh   1 at (   1   1  16)
       ---------------------------------------------------------------
       Max CFL number:  0.72E-01 at (  10,   1,  10)
       Max divergence:  0.43E-12 at (  18,   1,  12)
       Min divergence: -0.44E-12 at (   6,   1,  16)
       Max VN number:   0.00E+00 at (  20,   1,  20)
 
       Time Step       7   November  6, 2020  13:37:31
       Step Size:    0.329E-04 s, Total Time:     0.0002 s
       Pressure Iterations:      1
       Maximum Velocity Error:  0.67E-06 on Mesh   1 at (  15   1   0)
       Maximum Pressure Error:  0.22E-08 on Mesh   1 at (  14   1  12)
       ---------------------------------------------------------------
       Max CFL number:  0.79E-01 at (  10,   1,  10)
       Max divergence:  0.41E-12 at (  20,   1,   3)
       Min divergence: -0.42E-12 at (   2,   1,   4)
       Max VN number:   0.00E+00 at (  20,   1,  20)
 
       Time Step       8   November  6, 2020  13:37:31
       Step Size:    0.361E-04 s, Total Time:     0.0002 s
       Pressure Iterations:      1
       Maximum Velocity Error:  0.10E-05 on Mesh   1 at (   0   1   6)
       Maximum Pressure Error:  0.24E-08 on Mesh   1 at (   2   1   2)
       ---------------------------------------------------------------
       Max CFL number:  0.87E-01 at (  10,   1,  10)
       Max divergence:  0.45E-12 at (  11,   1,   8)
       Min divergence: -0.42E-12 at (  10,   1,   7)
       Max VN number:   0.00E+00 at (  20,   1,  20)
 
       Time Step       9   November  6, 2020  13:37:31
       Step Size:    0.397E-04 s, Total Time:     0.0003 s
       Pressure Iterations:      1
       Maximum Velocity Error:  0.13E-05 on Mesh   1 at (   0   1   5)
       Maximum Pressure Error:  0.22E-08 on Mesh   1 at (  15   1  12)
       ---------------------------------------------------------------
       Max CFL number:  0.96E-01 at (  10,   1,  10)
       Max divergence:  0.45E-12 at (  14,   1,   6)
       Min divergence: -0.44E-12 at (  15,   1,   6)
       Max VN number:   0.00E+00 at (  20,   1,  20)
 
       Time Step      10   November  6, 2020  13:37:31
       Step Size:    0.437E-04 s, Total Time:     0.0003 s
       Pressure Iterations:      1
       Maximum Velocity Error:  0.14E-05 on Mesh   1 at (   0   1   4)
       Maximum Pressure Error:  0.21E-08 on Mesh   1 at (  13   1  14)
       ---------------------------------------------------------------
       Max CFL number:  0.11E+00 at (  10,   1,  10)
       Max divergence:  0.41E-12 at (   2,   1,   5)
       Min divergence: -0.43E-12 at (   3,   1,  11)
       Max VN number:   0.00E+00 at (  20,   1,  20)
 
       Time Step      20   November  6, 2020  13:37:31
       Step Size:    0.113E-03 s, Total Time:      0.001 s
       Pressure Iterations:      1
       Maximum Velocity Error:  0.37E-04 on Mesh   1 at (   0   1   9)
       Maximum Pressure Error:  0.23E-08 on Mesh   1 at (   5   1   9)
       ---------------------------------------------------------------
       Max CFL number:  0.27E+00 at (  11,   1,  10)
       Max divergence:  0.41E-12 at (  15,   1,  17)
       Min divergence: -0.41E-12 at (  17,   1,   9)
       Max VN number:   0.00E+00 at (  20,   1,  20)
 
       Time Step      30   November  6, 2020  13:37:31
       Step Size:    0.183E-03 s, Total Time:      0.003 s
       Pressure Iterations:      2
       Maximum Velocity Error:  0.30E-02 on Mesh   1 at (   0   1   8)
       Maximum Pressure Error:  0.22E-08 on Mesh   1 at (  14   1   4)
       ---------------------------------------------------------------
       Max CFL number:  0.43E+00 at (  14,   1,  10)
       Max divergence:  0.44E-12 at (  17,   1,  17)
       Min divergence: -0.44E-12 at (  19,   1,   2)
       Max VN number:   0.00E+00 at (  20,   1,  20)
 
       Time Step      40   November  6, 2020  13:37:31
       Step Size:    0.183E-03 s, Total Time:      0.005 s
       Pressure Iterations:      2
       Maximum Velocity Error:  0.74E-02 on Mesh   1 at (   0   1  13)
       Maximum Pressure Error:  0.25E-08 on Mesh   1 at (  18   1  18)
       ---------------------------------------------------------------
       Max CFL number:  0.43E+00 at (  18,   1,  10)
       Max divergence:  0.44E-12 at (   4,   1,  18)
       Min divergence: -0.45E-12 at (  18,   1,   2)
       Max VN number:   0.00E+00 at (  20,   1,  20)
 
       Time Step      50   November  6, 2020  13:37:31
       Step Size:    0.183E-03 s, Total Time:      0.006 s
       Pressure Iterations:      3
       Maximum Velocity Error:  0.42E-02 on Mesh   1 at (   0   1  11)
       Maximum Pressure Error:  0.23E-08 on Mesh   1 at (  10   1   5)
       ---------------------------------------------------------------
       Max CFL number:  0.43E+00 at (   5,   1,  10)
       Max divergence:  0.44E-12 at (   4,   1,  20)
       Min divergence: -0.42E-12 at (   2,   1,   6)
       Max VN number:   0.00E+00 at (  20,   1,  20)
 
       Time Step      60   November  6, 2020  13:37:31
       Step Size:    0.183E-03 s, Total Time:      0.008 s
       Pressure Iterations:      3
       Maximum Velocity Error:  0.35E-02 on Mesh   1 at (   0   1  14)
       Maximum Pressure Error:  0.21E-08 on Mesh   1 at (  19   1  17)
       ---------------------------------------------------------------
       Max CFL number:  0.43E+00 at (   5,   1,  10)
       Max divergence:  0.43E-12 at (   2,   1,   3)
       Min divergence: -0.43E-12 at (  13,   1,   2)
       Max VN number:   0.00E+00 at (  20,   1,  20)
 
       Time Step      70   November  6, 2020  13:37:31
       Step Size:    0.183E-03 s, Total Time:       0.01 s
       Pressure Iterations:      2
       Maximum Velocity Error:  0.72E-02 on Mesh   1 at (   0   1   8)
       Maximum Pressure Error:  0.27E-08 on Mesh   1 at (   3   1   2)
       ---------------------------------------------------------------
       Max CFL number:  0.43E+00 at (  14,   1,  10)
       Max divergence:  0.43E-12 at (   2,   1,  16)
       Min divergence: -0.45E-12 at (  15,   1,  11)
       Max VN number:   0.00E+00 at (  20,   1,  20)
 
       Time Step      80   November  6, 2020  13:37:31
       Step Size:    0.183E-03 s, Total Time:       0.01 s
       Pressure Iterations:      2
       Maximum Velocity Error:  0.45E-02 on Mesh   1 at (   0   1  13)
       Maximum Pressure Error:  0.23E-08 on Mesh   1 at (  11   1  18)
       ---------------------------------------------------------------
       Max CFL number:  0.43E+00 at (  14,   1,  10)
       Max divergence:  0.44E-12 at (  12,   1,  10)
       Min divergence: -0.43E-12 at (  14,   1,  11)
       Max VN number:   0.00E+00 at (  20,   1,  20)
 
       Time Step      90   November  6, 2020  13:37:31
       Step Size:    0.183E-03 s, Total Time:       0.01 s
       Pressure Iterations:      3
       Maximum Velocity Error:  0.34E-02 on Mesh   1 at (   0   1   7)
       Maximum Pressure Error:  0.24E-08 on Mesh   1 at (  20   1   1)
       ---------------------------------------------------------------
       Max CFL number:  0.43E+00 at (  20,   1,  10)
       Max divergence:  0.41E-12 at (  15,   1,  17)
       Min divergence: -0.43E-12 at (  17,   1,  14)
       Max VN number:   0.00E+00 at (  20,   1,  20)
 
       Time Step     100   November  6, 2020  13:37:31
       Step Size:    0.183E-03 s, Total Time:       0.02 s
       Pressure Iterations:      3
       Maximum Velocity Error:  0.49E-02 on Mesh   1 at (   0   1  14)
       Maximum Pressure Error:  0.22E-08 on Mesh   1 at (   1   1  19)
       ---------------------------------------------------------------
       Max CFL number:  0.43E+00 at (   1,   1,  10)
       Max divergence:  0.42E-12 at (  14,   1,   6)
       Min divergence: -0.43E-12 at (   3,   1,  15)
       Max VN number:   0.00E+00 at (  20,   1,  20)
 
       Time Step     200   November  6, 2020  13:37:31
       Step Size:    0.183E-03 s, Total Time:       0.03 s
       Pressure Iterations:      1
       Maximum Velocity Error:  0.61E-02 on Mesh   1 at (   0   1   9)
       Maximum Pressure Error:  0.25E-08 on Mesh   1 at (  19   1  20)
       ---------------------------------------------------------------
       Max CFL number:  0.44E+00 at (   5,   1,  10)
       Max divergence:  0.44E-12 at (   5,   1,   4)
       Min divergence: -0.42E-12 at (  19,   1,   8)
       Max VN number:   0.00E+00 at (  20,   1,  20)
 
       Time Step     300   November  6, 2020  13:37:32
       Step Size:    0.183E-03 s, Total Time:       0.05 s
       Pressure Iterations:      2
       Maximum Velocity Error:  0.35E-02 on Mesh   1 at (   0   1  11)
       Maximum Pressure Error:  0.25E-08 on Mesh   1 at (   2   1   1)
       ---------------------------------------------------------------
       Max CFL number:  0.45E+00 at (  10,   1,  10)
       Max divergence:  0.40E-12 at (   6,   1,  14)
       Min divergence: -0.44E-12 at (  16,   1,  10)
       Max VN number:   0.00E+00 at (  20,   1,  20)
 
       Time Step     400   November  6, 2020  13:37:32
       Step Size:    0.183E-03 s, Total Time:       0.07 s
       Pressure Iterations:      3
       Maximum Velocity Error:  0.60E-02 on Mesh   1 at (   0   1  14)
       Maximum Pressure Error:  0.25E-08 on Mesh   1 at (   9   1  16)
       ---------------------------------------------------------------
       Max CFL number:  0.45E+00 at (  10,   1,  10)
       Max divergence:  0.45E-12 at (  19,   1,  12)
       Min divergence: -0.45E-12 at (   5,   1,  19)
       Max VN number:   0.00E+00 at (  20,   1,  20)
 
       Time Step     500   November  6, 2020  13:37:32
       Step Size:    0.183E-03 s, Total Time:       0.09 s
       Pressure Iterations:      3
       Maximum Velocity Error:  0.76E-02 on Mesh   1 at (   0   1  14)
       Maximum Pressure Error:  0.22E-08 on Mesh   1 at (  19   1   3)
       ---------------------------------------------------------------
       Max CFL number:  0.46E+00 at (   1,   1,  10)
       Max divergence:  0.45E-12 at (  18,   1,   2)
       Min divergence: -0.44E-12 at (   8,   1,  10)
       Max VN number:   0.00E+00 at (  20,   1,  20)
 
       Time Step     600   November  6, 2020  13:37:33
       Step Size:    0.183E-03 s, Total Time:       0.11 s
       Pressure Iterations:      2
       Maximum Velocity Error:  0.42E-02 on Mesh   1 at (   0   1  11)
       Maximum Pressure Error:  0.29E-08 on Mesh   1 at (  10   1   8)
       ---------------------------------------------------------------
       Max CFL number:  0.49E+00 at (   9,   1,  11)
       Max divergence:  0.41E-12 at (  18,   1,  16)
       Min divergence: -0.40E-12 at (  11,   1,   1)
       Max VN number:   0.00E+00 at (  20,   1,  20)
 
       Time Step     700   November  6, 2020  13:37:33
       Step Size:    0.163E-03 s, Total Time:       0.12 s
       Pressure Iterations:      4
       Maximum Velocity Error:  0.51E-02 on Mesh   1 at (   0   1  13)
       Maximum Pressure Error:  0.23E-08 on Mesh   1 at (   6   1   3)
       ---------------------------------------------------------------
       Max CFL number:  0.45E+00 at (   1,   1,  10)
       Max divergence:  0.47E-12 at (  16,   1,  10)
       Min divergence: -0.43E-12 at (  17,   1,   9)
       Max VN number:   0.00E+00 at (  20,   1,  20)
 
       Time Step     800   November  6, 2020  13:37:33
       Step Size:    0.163E-03 s, Total Time:       0.14 s
       Pressure Iterations:      5
       Maximum Velocity Error:  0.54E-02 on Mesh   1 at (   0   1  10)
       Maximum Pressure Error:  0.29E-08 on Mesh   1 at (  19   1  11)
       ---------------------------------------------------------------
       Max CFL number:  0.48E+00 at (  20,   1,  10)
       Max divergence:  0.48E-12 at (   1,   1,  11)
       Min divergence: -0.46E-12 at (  19,   1,  12)
       Max VN number:   0.00E+00 at (  20,   1,  20)
 
       Time Step     900   November  6, 2020  13:37:33
       Step Size:    0.163E-03 s, Total Time:       0.16 s
       Pressure Iterations:      4
       Maximum Velocity Error:  0.55E-02 on Mesh   1 at (   0   1  13)
       Maximum Pressure Error:  0.35E-08 on Mesh   1 at (  14   1  10)
       ---------------------------------------------------------------
       Max CFL number:  0.46E+00 at (  13,   1,  10)
       Max divergence:  0.50E-12 at (  11,   1,  13)
       Min divergence: -0.49E-12 at (  10,   1,  10)
       Max VN number:   0.00E+00 at (  20,   1,  20)
 
       Time Step    1000   November  6, 2020  13:37:34
       Step Size:    0.163E-03 s, Total Time:       0.17 s
       Pressure Iterations:      5
       Maximum Velocity Error:  0.49E-02 on Mesh   1 at (   0   1  12)
       Maximum Pressure Error:  0.27E-08 on Mesh   1 at (  15   1  12)
       ---------------------------------------------------------------
       Max CFL number:  0.45E+00 at (  15,   1,  13)
       Max divergence:  0.51E-12 at (  13,   1,  12)
       Min divergence: -0.48E-12 at (  12,   1,   8)
       Max VN number:   0.00E+00 at (  20,   1,  20)
 
       Time Step    1100   November  6, 2020  13:37:34
       Step Size:    0.163E-03 s, Total Time:       0.19 s
       Pressure Iterations:      5
       Maximum Velocity Error:  0.42E-02 on Mesh   1 at (   0   1  13)
       Maximum Pressure Error:  0.63E-08 on Mesh   1 at (  19   1  13)
       ---------------------------------------------------------------
       Max CFL number:  0.50E+00 at (  19,   1,  13)
       Max divergence:  0.48E-12 at (  19,   1,  13)
       Min divergence: -0.44E-12 at (  19,   1,  14)
       Max VN number:   0.00E+00 at (  20,   1,  20)
 
       Time Step    1200   November  6, 2020  13:37:35
       Step Size:    0.146E-03 s, Total Time:       0.20 s
       Pressure Iterations:      4
       Maximum Velocity Error:  0.70E-02 on Mesh   1 at (   0   1  15)
       Maximum Pressure Error:  0.37E-08 on Mesh   1 at (   9   1  15)
       ---------------------------------------------------------------
       Max CFL number:  0.45E+00 at (   9,   1,  15)
       Max divergence:  0.51E-12 at (  12,   1,   8)
       Min divergence: -0.54E-12 at (  11,   1,   8)
       Max VN number:   0.00E+00 at (  20,   1,  20)
 
       Time Step    1300   November  6, 2020  13:37:35
       Step Size:    0.146E-03 s, Total Time:       0.22 s
       Pressure Iterations:      4
       Maximum Velocity Error:  0.50E-02 on Mesh   1 at (   0   1   7)
       Maximum Pressure Error:  0.36E-08 on Mesh   1 at (  14   1   7)
       ---------------------------------------------------------------
       Max CFL number:  0.44E+00 at (  10,   1,  15)
       Max divergence:  0.51E-12 at (  17,   1,  17)
       Min divergence: -0.55E-12 at (  10,   1,   7)
       Max VN number:   0.00E+00 at (  20,   1,  20)
 
       Time Step    1400   November  6, 2020  13:37:35
       Step Size:    0.146E-03 s, Total Time:       0.23 s
       Pressure Iterations:      5
       Maximum Velocity Error:  0.56E-02 on Mesh   1 at (   0   1  13)
       Maximum Pressure Error:  0.47E-08 on Mesh   1 at (  19   1  19)
       ---------------------------------------------------------------
       Max CFL number:  0.46E+00 at (  19,   1,  17)
       Max divergence:  0.57E-12 at (  20,   1,  19)
       Min divergence: -0.38E-12 at (  12,   1,  14)
       Max VN number:   0.00E+00 at (  20,   1,  20)
 
       Time Step    1500   November  6, 2020  13:37:36
       Step Size:    0.146E-03 s, Total Time:       0.25 s
       Pressure Iterations:      6
       Maximum Velocity Error:  0.36E-02 on Mesh   1 at (   0   1  10)
       Maximum Pressure Error:  0.70E-08 on Mesh   1 at (   4   1  19)
       ---------------------------------------------------------------
       Max CFL number:  0.44E+00 at (  20,   1,  19)
       Max divergence:  0.80E-12 at (  20,   1,  19)
       Min divergence: -0.57E-12 at (  18,   1,  15)
       Max VN number:   0.00E+00 at (  20,   1,  20)
 
       Time Step    1600   November  6, 2020  13:37:36
       Step Size:    0.146E-03 s, Total Time:       0.26 s
       Pressure Iterations:      5
       Maximum Velocity Error:  0.53E-02 on Mesh   1 at (   0   1  14)
       Maximum Pressure Error:  0.52E-08 on Mesh   1 at (   5   1  19)
       ---------------------------------------------------------------
       Max CFL number:  0.46E+00 at (  10,   1,   1)
       Max divergence:  0.70E-12 at (  10,   1,  19)
       Min divergence: -0.48E-12 at (  15,   1,  12)
       Max VN number:   0.00E+00 at (  20,   1,  20)
 
       Time Step    1700   November  6, 2020  13:37:36
       Step Size:    0.146E-03 s, Total Time:       0.28 s
       Pressure Iterations:      5
       Maximum Velocity Error:  0.64E-02 on Mesh   1 at (   0   1  12)
       Maximum Pressure Error:  0.49E-08 on Mesh   1 at (  13   1   7)
       ---------------------------------------------------------------
       Max CFL number:  0.47E+00 at (  11,   1,   1)
       Max divergence:  0.63E-12 at (   7,   1,  14)
       Min divergence: -0.60E-12 at (  16,   1,  19)
       Max VN number:   0.00E+00 at (  20,   1,  20)
 
       Time Step    1800   November  6, 2020  13:37:37
       Step Size:    0.131E-03 s, Total Time:       0.29 s
       Pressure Iterations:      6
       Maximum Velocity Error:  0.45E-02 on Mesh   1 at (   0   1  13)
       Maximum Pressure Error:  0.63E-08 on Mesh   1 at (  20   1  12)
       ---------------------------------------------------------------
       Max CFL number:  0.46E+00 at (   3,   1,  12)
       Max divergence:  0.51E-12 at (  16,   1,  14)
       Min divergence: -0.46E-12 at (   7,   1,   6)
       Max VN number:   0.00E+00 at (  20,   1,  20)
 
       Time Step    1900   November  6, 2020  13:37:37
       Step Size:    0.131E-03 s, Total Time:       0.30 s
       Pressure Iterations:      6
       Maximum Velocity Error:  0.50E-02 on Mesh   1 at (   0   1   9)
       Maximum Pressure Error:  0.66E-08 on Mesh   1 at (  19   1  13)
       ---------------------------------------------------------------
       Max CFL number:  0.43E+00 at (  20,   1,   3)
       Max divergence:  0.57E-12 at (  16,   1,  16)
       Min divergence: -0.68E-12 at (  20,   1,   3)
       Max VN number:   0.00E+00 at (  20,   1,  20)
 
       Time Step    2000   November  6, 2020  13:37:37
       Step Size:    0.131E-03 s, Total Time:       0.32 s
       Pressure Iterations:      5
       Maximum Velocity Error:  0.59E-02 on Mesh   1 at (   0   1  13)
       Maximum Pressure Error:  0.84E-08 on Mesh   1 at (  12   1  12)
       ---------------------------------------------------------------
       Max CFL number:  0.47E+00 at (   9,   1,   3)
       Max divergence:  0.74E-12 at (  10,   1,  10)
       Min divergence: -0.66E-12 at (   9,   1,  15)
       Max VN number:   0.00E+00 at (  20,   1,  20)
 
       Time Step    2100   November  6, 2020  13:37:38
       Step Size:    0.131E-03 s, Total Time:       0.33 s
       Pressure Iterations:      6
       Maximum Velocity Error:  0.38E-02 on Mesh   1 at (   0   1  13)
       Maximum Pressure Error:  0.54E-08 on Mesh   1 at (  18   1  19)
       ---------------------------------------------------------------
       Max CFL number:  0.47E+00 at (   3,   1,  12)
       Max divergence:  0.58E-12 at (  18,   1,  19)
       Min divergence: -0.53E-12 at (   9,   1,  12)
       Max VN number:   0.00E+00 at (  20,   1,  20)
 
       Time Step    2200   November  6, 2020  13:37:38
       Step Size:    0.118E-03 s, Total Time:       0.34 s
       Pressure Iterations:      5
       Maximum Velocity Error:  0.72E-02 on Mesh   1 at (   0   1   9)
       Maximum Pressure Error:  0.91E-08 on Mesh   1 at (  19   1   1)
       ---------------------------------------------------------------
       Max CFL number:  0.44E+00 at (   3,   1,   9)
       Max divergence:  0.58E-12 at (  11,   1,  19)
       Min divergence: -0.57E-12 at (  19,   1,  19)
       Max VN number:   0.00E+00 at (  20,   1,  20)
 
       Time Step    2300   November  6, 2020  13:37:38
       Step Size:    0.118E-03 s, Total Time:       0.35 s
       Pressure Iterations:      6
       Maximum Velocity Error:  0.46E-02 on Mesh   1 at (   0   1  14)
       Maximum Pressure Error:  0.88E-08 on Mesh   1 at (  19   1   8)
       ---------------------------------------------------------------
       Max CFL number:  0.44E+00 at (  20,   1,   8)
       Max divergence:  0.65E-12 at (  20,   1,  19)
       Min divergence: -0.51E-12 at (  10,   1,  14)
       Max VN number:   0.00E+00 at (  20,   1,  20)
 
       Time Step    2400   November  6, 2020  13:37:39
       Step Size:    0.118E-03 s, Total Time:       0.37 s
       Pressure Iterations:      6
       Maximum Velocity Error:  0.51E-02 on Mesh   1 at (   0   1  14)
       Maximum Pressure Error:  0.11E-07 on Mesh   1 at (   5   1  19)
       ---------------------------------------------------------------
       Max CFL number:  0.48E+00 at (  11,   1,   9)
       Max divergence:  0.71E-12 at (   1,   1,   7)
       Min divergence: -0.50E-12 at (  19,   1,   1)
       Max VN number:   0.00E+00 at (  20,   1,  20)
 
       Time Step    2500   November  6, 2020  13:37:39
       Step Size:    0.106E-03 s, Total Time:       0.38 s
       Pressure Iterations:      5
       Maximum Velocity Error:  0.48E-02 on Mesh   1 at (   0   1  15)
       Maximum Pressure Error:  0.78E-08 on Mesh   1 at (  19   1  13)
       ---------------------------------------------------------------
       Max CFL number:  0.42E+00 at (  12,   1,   8)
       Max divergence:  0.74E-12 at (   5,   1,  19)
       Min divergence: -0.49E-12 at (  19,   1,  13)
       Max VN number:   0.00E+00 at (  20,   1,  20)
 
       Time Step    2600   November  6, 2020  13:37:40
       Step Size:    0.117E-03 s, Total Time:       0.39 s
       Pressure Iterations:      6
       Maximum Velocity Error:  0.73E-02 on Mesh   1 at (   0   1  10)
       Maximum Pressure Error:  0.10E-07 on Mesh   1 at (  19   1  10)
       ---------------------------------------------------------------
       Max CFL number:  0.49E+00 at (   3,   1,   9)
       Max divergence:  0.54E-12 at (   8,   1,  20)
       Min divergence: -0.91E-12 at (  20,   1,   9)
       Max VN number:   0.00E+00 at (  20,   1,  20)
 
       Time Step    2700   November  6, 2020  13:37:40
       Step Size:    0.105E-03 s, Total Time:       0.40 s
       Pressure Iterations:      5
       Maximum Velocity Error:  0.36E-02 on Mesh   1 at (   0   1  15)
       Maximum Pressure Error:  0.93E-08 on Mesh   1 at (  14   1  19)
       ---------------------------------------------------------------
       Max CFL number:  0.47E+00 at (  19,   1,   9)
       Max divergence:  0.80E-12 at (  14,   1,  19)
       Min divergence: -0.57E-12 at (  20,   1,  12)
       Max VN number:   0.00E+00 at (  20,   1,  20)
 
       Time Step    2800   November  6, 2020  13:37:40
       Step Size:    0.105E-03 s, Total Time:       0.41 s
       Pressure Iterations:      5
       Maximum Velocity Error:  0.78E-02 on Mesh   1 at (   0   1   4)
       Maximum Pressure Error:  0.11E-07 on Mesh   1 at (  17   1  19)
       ---------------------------------------------------------------
       Max CFL number:  0.44E+00 at (   4,   1,   8)
       Max divergence:  0.60E-12 at (  17,   1,  19)
       Min divergence: -0.68E-12 at (  20,   1,   8)
       Max VN number:   0.00E+00 at (  20,   1,  20)
 
       Time Step    2900   November  6, 2020  13:37:41
       Step Size:    0.105E-03 s, Total Time:       0.42 s
       Pressure Iterations:      6
       Maximum Velocity Error:  0.42E-02 on Mesh   1 at (   0   1   8)
       Maximum Pressure Error:  0.10E-07 on Mesh   1 at (  13   1  10)
       ---------------------------------------------------------------
       Max CFL number:  0.45E+00 at (  12,   1,   9)
       Max divergence:  0.80E-12 at (  11,   1,  10)
       Min divergence: -0.58E-12 at (   7,   1,  19)
       Max VN number:   0.00E+00 at (  20,   1,  20)
 
       Time Step    3000   November  6, 2020  13:37:41
       Step Size:    0.105E-03 s, Total Time:       0.43 s
       Pressure Iterations:      5
       Maximum Velocity Error:  0.72E-02 on Mesh   1 at (   0   1   3)
       Maximum Pressure Error:  0.97E-08 on Mesh   1 at (   6   1  19)
       ---------------------------------------------------------------
       Max CFL number:  0.45E+00 at (  10,   1,   4)
       Max divergence:  0.80E-12 at (   9,   1,   4)
       Min divergence: -0.49E-12 at (   6,   1,  19)
       Max VN number:   0.00E+00 at (  20,   1,  20)
 
       Time Step    3100   November  6, 2020  13:37:41
       Step Size:    0.105E-03 s, Total Time:       0.44 s
       Pressure Iterations:      6
       Maximum Velocity Error:  0.63E-02 on Mesh   1 at (   0   1  10)
       Maximum Pressure Error:  0.10E-07 on Mesh   1 at (  16   1  19)
       ---------------------------------------------------------------
       Max CFL number:  0.48E+00 at (   1,   1,   9)
       Max divergence:  0.80E-12 at (  16,   1,  19)
       Min divergence: -0.57E-12 at (   6,   1,  18)
       Max VN number:   0.00E+00 at (  20,   1,  20)
 
       Time Step    3200   November  6, 2020  13:37:42
       Step Size:    0.102E-03 s, Total Time:       0.45 s
       Pressure Iterations:      6
       Maximum Velocity Error:  0.43E-02 on Mesh   1 at (   0   1   9)
       Maximum Pressure Error:  0.88E-08 on Mesh   1 at (  12   1  12)
       ---------------------------------------------------------------
       Max CFL number:  0.44E+00 at (   4,   1,   8)
       Max divergence:  0.67E-12 at (   9,   1,  19)
       Min divergence: -0.57E-12 at (   8,   1,   7)
       Max VN number:   0.00E+00 at (  20,   1,  20)
 
       Time Step    3300   November  6, 2020  13:37:42
       Step Size:    0.100E-03 s, Total Time:       0.46 s
       Pressure Iterations:      6
       Maximum Velocity Error:  0.59E-02 on Mesh   1 at (   0   1  10)
       Maximum Pressure Error:  0.13E-07 on Mesh   1 at (  20   1   8)
       ---------------------------------------------------------------
       Max CFL number:  0.47E+00 at (  12,   1,   9)
       Max divergence:  0.68E-12 at (   1,   1,   8)
       Min divergence: -0.68E-12 at (  11,   1,   9)
       Max VN number:   0.00E+00 at (  20,   1,  20)
 
       Time Step    3400   November  6, 2020  13:37:42
       Step Size:    0.100E-03 s, Total Time:       0.47 s
       Pressure Iterations:      5
       Maximum Velocity Error:  0.72E-02 on Mesh   1 at (   0   1   8)
       Maximum Pressure Error:  0.79E-08 on Mesh   1 at (  19   1   9)
       ---------------------------------------------------------------
       Max CFL number:  0.45E+00 at (  10,   1,   9)
       Max divergence:  0.57E-12 at (   3,   1,  13)
       Min divergence: -0.57E-12 at (  19,   1,  10)
       Max VN number:   0.00E+00 at (  20,   1,  20)
 
       Time Step    3500   November  6, 2020  13:37:43
       Step Size:    0.956E-04 s, Total Time:       0.48 s
       Pressure Iterations:      5
       Maximum Velocity Error:  0.72E-02 on Mesh   1 at (   0   1   6)
       Maximum Pressure Error:  0.11E-07 on Mesh   1 at (  20   1  19)
       ---------------------------------------------------------------
       Max CFL number:  0.43E+00 at (   6,   1,   9)
       Max divergence:  0.74E-12 at (   1,   1,  13)
       Min divergence: -0.63E-12 at (   4,   1,  19)
       Max VN number:   0.00E+00 at (  20,   1,  20)
 
       Time Step    3600   November  6, 2020  13:37:43
       Step Size:    0.916E-04 s, Total Time:       0.49 s
       Pressure Iterations:      5
       Maximum Velocity Error:  0.41E-02 on Mesh   1 at (   0   1  14)
       Maximum Pressure Error:  0.13E-07 on Mesh   1 at (  15   1  12)
       ---------------------------------------------------------------
       Max CFL number:  0.46E+00 at (   8,   1,   9)
       Max divergence:  0.63E-12 at (  19,   1,   4)
       Min divergence: -0.57E-12 at (  12,   1,  12)
       Max VN number:   0.00E+00 at (  20,   1,  20)
 
       Time Step    3700   November  6, 2020  13:37:44
       Step Size:    0.993E-04 s, Total Time:       0.50 s
       Pressure Iterations:      5
       Maximum Velocity Error:  0.70E-02 on Mesh   1 at (   0   1   6)
       Maximum Pressure Error:  0.12E-07 on Mesh   1 at (  10   1  10)
       ---------------------------------------------------------------
       Max CFL number:  0.45E+00 at (   9,   1,   9)
       Max divergence:  0.74E-12 at (   4,   1,  19)
       Min divergence: -0.68E-12 at (  15,   1,  10)
       Max VN number:   0.00E+00 at (  20,   1,  20)
 
       Time Step    3800   November  6, 2020  13:37:44
       Step Size:    0.884E-04 s, Total Time:       0.51 s
       Pressure Iterations:      5
       Maximum Velocity Error:  0.60E-02 on Mesh   1 at (   0   1   7)
       Maximum Pressure Error:  0.14E-07 on Mesh   1 at (  19   1  10)
       ---------------------------------------------------------------
       Max CFL number:  0.41E+00 at (  14,   1,  10)
       Max divergence:  0.68E-12 at (   7,   1,  19)
       Min divergence: -0.97E-12 at (  19,   1,  10)
       Max VN number:   0.00E+00 at (  20,   1,  20)
 
       Time Step    3900   November  6, 2020  13:37:44
       Step Size:    0.938E-04 s, Total Time:       0.52 s
       Pressure Iterations:      5
       Maximum Velocity Error:  0.67E-02 on Mesh   1 at (   0   1   5)
       Maximum Pressure Error:  0.10E-07 on Mesh   1 at (  12   1  20)
       ---------------------------------------------------------------
       Max CFL number:  0.44E+00 at (   3,   1,   5)
       Max divergence:  0.57E-12 at (  14,   1,  14)
       Min divergence: -0.68E-12 at (  12,   1,   9)
       Max VN number:   0.00E+00 at (  20,   1,  20)
 
       Time Step    4000   November  6, 2020  13:37:45
       Step Size:    0.103E-03 s, Total Time:       0.53 s
       Pressure Iterations:      6
       Maximum Velocity Error:  0.49E-02 on Mesh   1 at (   0   1   9)
       Maximum Pressure Error:  0.21E-07 on Mesh   1 at (  14   1  19)
       ---------------------------------------------------------------
       Max CFL number:  0.44E+00 at (  18,   1,  20)
       Max divergence:  0.68E-12 at (   7,   1,  10)
       Min divergence: -0.14E-11 at (  14,   1,  19)
       Max VN number:   0.00E+00 at (  20,   1,  20)
 
       Time Step    4100   November  6, 2020  13:37:45
       Step Size:    0.905E-04 s, Total Time:       0.54 s
       Pressure Iterations:      5
       Maximum Velocity Error:  0.57E-02 on Mesh   1 at (   0   1   1)
       Maximum Pressure Error:  0.10E-07 on Mesh   1 at (  12   1  19)
       ---------------------------------------------------------------
       Max CFL number:  0.42E+00 at (   4,   1,   9)
       Max divergence:  0.57E-12 at (   3,   1,   4)
       Min divergence: -0.76E-12 at (  12,   1,  19)
       Max VN number:   0.00E+00 at (  20,   1,  20)
 
       Time Step    4200   November  6, 2020  13:37:45
       Step Size:    0.811E-04 s, Total Time:       0.54 s
       Pressure Iterations:      6
       Maximum Velocity Error:  0.29E-02 on Mesh   1 at (   0   1   9)
       Maximum Pressure Error:  0.15E-07 on Mesh   1 at (  12   1  19)
       ---------------------------------------------------------------
       Max CFL number:  0.45E+00 at (   3,   1,  10)
       Max divergence:  0.53E-12 at (   4,   1,  19)
       Min divergence: -0.65E-12 at (  12,   1,  19)
       Max VN number:   0.00E+00 at (  20,   1,  20)
 
       Time Step    4300   November  6, 2020  13:37:46
       Step Size:    0.959E-04 s, Total Time:       0.55 s
       Pressure Iterations:      5
       Maximum Velocity Error:  0.59E-02 on Mesh   1 at (   3   1   0)
       Maximum Pressure Error:  0.17E-07 on Mesh   1 at (   9   1  19)
       ---------------------------------------------------------------
       Max CFL number:  0.45E+00 at (   4,   1,   9)
       Max divergence:  0.85E-12 at (  11,   1,  19)
       Min divergence: -0.10E-11 at (   9,   1,  19)
       Max VN number:   0.00E+00 at (  20,   1,  20)
 
       Time Step    4400   November  6, 2020  13:37:46
       Step Size:    0.936E-04 s, Total Time:       0.56 s
       Pressure Iterations:      5
       Maximum Velocity Error:  0.69E-02 on Mesh   1 at (   0   1   8)
       Maximum Pressure Error:  0.24E-07 on Mesh   1 at (   1   1  19)
       ---------------------------------------------------------------
       Max CFL number:  0.43E+00 at (  14,   1,  13)
       Max divergence:  0.74E-12 at (  13,   1,  13)
       Min divergence: -0.14E-11 at (   1,   1,  19)
       Max VN number:   0.00E+00 at (  20,   1,  20)
 
       Time Step    4500   November  6, 2020  13:37:46
       Step Size:    0.910E-04 s, Total Time:       0.57 s
       Pressure Iterations:      6
       Maximum Velocity Error:  0.54E-02 on Mesh   1 at (   0   1  15)
       Maximum Pressure Error:  0.15E-07 on Mesh   1 at (  18   1  19)
       ---------------------------------------------------------------
       Max CFL number:  0.47E+00 at (   8,   1,   9)
       Max divergence:  0.80E-12 at (   9,   1,  17)
       Min divergence: -0.80E-12 at (  18,   1,  19)
       Max VN number:   0.00E+00 at (  20,   1,  20)
 
       Time Step    4600   November  6, 2020  13:37:47
       Step Size:    0.924E-04 s, Total Time:       0.58 s
       Pressure Iterations:      6
       Maximum Velocity Error:  0.49E-02 on Mesh   1 at (   0   1   2)
       Maximum Pressure Error:  0.12E-07 on Mesh   1 at (   4   1  10)
       ---------------------------------------------------------------
       Max CFL number:  0.45E+00 at (   7,   1,   9)
       Max divergence:  0.85E-12 at (  14,   1,   1)
       Min divergence: -0.63E-12 at (  18,   1,  12)
       Max VN number:   0.00E+00 at (  20,   1,  20)
 
       Time Step    4700   November  6, 2020  13:37:47
       Step Size:    0.904E-04 s, Total Time:       0.59 s
       Pressure Iterations:      6
       Maximum Velocity Error:  0.52E-02 on Mesh   1 at (  14   1   0)
       Maximum Pressure Error:  0.38E-07 on Mesh   1 at (   9   1  19)
       ---------------------------------------------------------------
       Max CFL number:  0.41E+00 at (  17,   1,  10)
       Max divergence:  0.11E-11 at (  11,   1,  19)
       Min divergence: -0.87E-12 at (   5,   1,  19)
       Max VN number:   0.00E+00 at (  20,   1,  20)
 
       Time Step    4800   November  6, 2020  13:37:48
       Step Size:    0.980E-04 s, Total Time:       0.60 s
       Pressure Iterations:      6
       Maximum Velocity Error:  0.71E-02 on Mesh   1 at (   0   1  11)
       Maximum Pressure Error:  0.19E-07 on Mesh   1 at (   3   1  19)
       ---------------------------------------------------------------
       Max CFL number:  0.44E+00 at (   6,   1,  10)
       Max divergence:  0.10E-11 at (   2,   1,   1)
       Min divergence: -0.92E-12 at (   3,   1,  19)
       Max VN number:   0.00E+00 at (  20,   1,  20)
 
       Time Step    4900   November  6, 2020  13:37:48
       Step Size:    0.872E-04 s, Total Time:       0.61 s
       Pressure Iterations:      5
       Maximum Velocity Error:  0.72E-02 on Mesh   1 at (   0   1   7)
       Maximum Pressure Error:  0.71E-07 on Mesh   1 at (  11   1  19)
       ---------------------------------------------------------------
       Max CFL number:  0.46E+00 at (   8,   1,  10)
       Max divergence:  0.28E-11 at (  11,   1,  19)
       Min divergence: -0.80E-12 at (   3,   1,  19)
       Max VN number:   0.00E+00 at (  20,   1,  20)
 
       Time Step    5000   November  6, 2020  13:37:48
       Step Size:    0.948E-04 s, Total Time:       0.62 s
       Pressure Iterations:      6
       Maximum Velocity Error:  0.56E-02 on Mesh   1 at (   0   1   7)
       Maximum Pressure Error:  0.47E-07 on Mesh   1 at (  17   1  19)
       ---------------------------------------------------------------
       Max CFL number:  0.46E+00 at (   7,   1,   5)
       Max divergence:  0.14E-11 at (  16,   1,  19)
       Min divergence: -0.68E-12 at (   1,   1,  19)
       Max VN number:   0.00E+00 at (  20,   1,  20)
 
       Time Step    5100   November  6, 2020  13:37:49
       Step Size:    0.935E-04 s, Total Time:       0.63 s
       Pressure Iterations:      6
       Maximum Velocity Error:  0.57E-02 on Mesh   1 at (   0   1   4)
       Maximum Pressure Error:  0.44E-07 on Mesh   1 at (  11   1  19)
       ---------------------------------------------------------------
       Max CFL number:  0.48E+00 at (   8,   1,   3)
       Max divergence:  0.94E-12 at (  15,   1,  19)
       Min divergence: -0.80E-12 at (   2,   1,  19)
       Max VN number:   0.00E+00 at (  20,   1,  20)
 
       Time Step    5200   November  6, 2020  13:37:49
       Step Size:    0.904E-04 s, Total Time:       0.64 s
       Pressure Iterations:      6
       Maximum Velocity Error:  0.76E-02 on Mesh   1 at (   0   1   1)
       Maximum Pressure Error:  0.39E-07 on Mesh   1 at (  13   1  19)
       ---------------------------------------------------------------
       Max CFL number:  0.45E+00 at (   5,   1,   9)
       Max divergence:  0.80E-12 at (  13,   1,  19)
       Min divergence: -0.89E-12 at (  11,   1,  19)
       Max VN number:   0.00E+00 at (  20,   1,  20)
 
       Time Step    5300   November  6, 2020  13:37:49
       Step Size:    0.878E-04 s, Total Time:       0.65 s
       Pressure Iterations:      5
       Maximum Velocity Error:  0.73E-02 on Mesh   1 at (   0   1  19)
       Maximum Pressure Error:  0.22E-07 on Mesh   1 at (  17   1  19)
       ---------------------------------------------------------------
       Max CFL number:  0.49E+00 at (   4,   1,   8)
       Max divergence:  0.10E-11 at (  19,   1,  19)
       Min divergence: -0.11E-11 at (  20,   1,  19)
       Max VN number:   0.00E+00 at (  20,   1,  20)
 
       Time Step    5400   November  6, 2020  13:37:50
       Step Size:    0.955E-04 s, Total Time:       0.65 s
       Pressure Iterations:      5
       Maximum Velocity Error:  0.62E-02 on Mesh   1 at (   0   1  20)
       Maximum Pressure Error:  0.41E-07 on Mesh   1 at (  18   1  19)
       ---------------------------------------------------------------
       Max CFL number:  0.46E+00 at (   8,   1,   7)
       Max divergence:  0.68E-12 at (  16,   1,  19)
       Min divergence: -0.63E-12 at (   3,   1,  20)
       Max VN number:   0.00E+00 at (  20,   1,  20)
 
       Time Step    5500   November  6, 2020  13:37:50
       Step Size:    0.843E-04 s, Total Time:       0.66 s
       Pressure Iterations:      5
       Maximum Velocity Error:  0.70E-02 on Mesh   1 at (   0   1  20)
       Maximum Pressure Error:  0.31E-07 on Mesh   1 at (  18   1  19)
       ---------------------------------------------------------------
       Max CFL number:  0.44E+00 at (   5,   1,   8)
       Max divergence:  0.13E-11 at (  17,   1,  19)
       Min divergence: -0.68E-12 at (  13,   1,  15)
       Max VN number:   0.00E+00 at (  20,   1,  20)
 
       Time Step    5600   November  6, 2020  13:37:50
       Step Size:    0.928E-04 s, Total Time:       0.67 s
       Pressure Iterations:      6
       Maximum Velocity Error:  0.54E-02 on Mesh   1 at (  14   1   0)
       Maximum Pressure Error:  0.49E-07 on Mesh   1 at (  16   1  19)
       ---------------------------------------------------------------
       Max CFL number:  0.49E+00 at (  19,   1,  12)
       Max divergence:  0.16E-11 at (  18,   1,  19)
       Min divergence: -0.13E-11 at (   6,   1,  19)
       Max VN number:   0.00E+00 at (  20,   1,  20)
 
       Time Step    5700   November  6, 2020  13:37:51
       Step Size:    0.915E-04 s, Total Time:       0.68 s
       Pressure Iterations:      6
       Maximum Velocity Error:  0.69E-02 on Mesh   1 at (   0   1  20)
       Maximum Pressure Error:  0.61E-07 on Mesh   1 at (  16   1  20)
       ---------------------------------------------------------------
       Max CFL number:  0.45E+00 at (  17,   1,   1)
       Max divergence:  0.97E-12 at (  14,   1,  19)
       Min divergence: -0.11E-11 at (   7,   1,  19)
       Max VN number:   0.00E+00 at (  20,   1,  20)
 
       Time Step    5800   November  6, 2020  13:37:51
       Step Size:    0.878E-04 s, Total Time:       0.69 s
       Pressure Iterations:      5
       Maximum Velocity Error:  0.74E-02 on Mesh   1 at (   0   1   7)
       Maximum Pressure Error:  0.54E-07 on Mesh   1 at (   9   1  19)
       ---------------------------------------------------------------
       Max CFL number:  0.45E+00 at (  10,   1,  12)
       Max divergence:  0.10E-11 at (   9,   1,  19)
       Min divergence: -0.80E-12 at (   4,   1,  20)
       Max VN number:   0.00E+00 at (  20,   1,  20)
 
       Time Step    5900   November  6, 2020  13:37:52
       Step Size:    0.842E-04 s, Total Time:       0.70 s
       Pressure Iterations:      6
       Maximum Velocity Error:  0.38E-02 on Mesh   1 at (   0   1  17)
       Maximum Pressure Error:  0.57E-07 on Mesh   1 at (  15   1  19)
       ---------------------------------------------------------------
       Max CFL number:  0.46E+00 at (  10,   1,  11)
       Max divergence:  0.91E-12 at (  14,   1,  19)
       Min divergence: -0.94E-12 at (   3,   1,  19)
       Max VN number:   0.00E+00 at (  20,   1,  20)
 
       Time Step    6000   November  6, 2020  13:37:52
       Step Size:    0.842E-04 s, Total Time:       0.71 s
       Pressure Iterations:      6
       Maximum Velocity Error:  0.40E-02 on Mesh   1 at (   0   1  15)
       Maximum Pressure Error:  0.43E-07 on Mesh   1 at (  10   1  19)
       ---------------------------------------------------------------
       Max CFL number:  0.42E+00 at (   2,   1,   9)
       Max divergence:  0.91E-12 at (  14,   1,  12)
       Min divergence: -0.13E-11 at (  13,   1,  20)
       Max VN number:   0.00E+00 at (  20,   1,  20)
 
       Time Step    6100   November  6, 2020  13:37:52
       Step Size:    0.833E-04 s, Total Time:       0.71 s
       Pressure Iterations:      6
       Maximum Velocity Error:  0.41E-02 on Mesh   1 at (   0   1   7)
       Maximum Pressure Error:  0.41E-07 on Mesh   1 at (   9   1  19)
       ---------------------------------------------------------------
       Max CFL number:  0.44E+00 at (   5,   1,   8)
       Max divergence:  0.94E-12 at (  19,   1,  11)
       Min divergence: -0.11E-11 at (  19,   1,  19)
       Max VN number:   0.00E+00 at (  20,   1,  20)
 
       Time Step    6200   November  6, 2020  13:37:53
       Step Size:    0.880E-04 s, Total Time:       0.72 s
       Pressure Iterations:      6
       Maximum Velocity Error:  0.48E-02 on Mesh   1 at (   0   1  11)
       Maximum Pressure Error:  0.40E-07 on Mesh   1 at (   6   1  19)
       ---------------------------------------------------------------
       Max CFL number:  0.44E+00 at (  15,   1,   7)
       Max divergence:  0.91E-12 at (   7,   1,  20)
       Min divergence: -0.14E-11 at (  17,   1,  19)
       Max VN number:   0.00E+00 at (  20,   1,  20)
 
       Time Step    6300   November  6, 2020  13:37:53
       Step Size:    0.870E-04 s, Total Time:       0.73 s
       Pressure Iterations:      6
       Maximum Velocity Error:  0.67E-02 on Mesh   1 at (   0   1   7)
       Maximum Pressure Error:  0.49E-07 on Mesh   1 at (   8   1  19)
       ---------------------------------------------------------------
       Max CFL number:  0.43E+00 at (   6,   1,  11)
       Max divergence:  0.10E-11 at (   1,   1,  13)
       Min divergence: -0.11E-11 at (  14,   1,  19)
       Max VN number:   0.00E+00 at (  20,   1,  20)
 
       Time Step    6400   November  6, 2020  13:37:53
       Step Size:    0.674E-04 s, Total Time:       0.74 s
       Pressure Iterations:      5
       Maximum Velocity Error:  0.33E-02 on Mesh   1 at (   0   1  18)
       Maximum Pressure Error:  0.50E-07 on Mesh   1 at (   6   1  19)
       ---------------------------------------------------------------
       Max CFL number:  0.45E+00 at (  16,   1,   7)
       Max divergence:  0.11E-11 at (   7,   1,  20)
       Min divergence: -0.91E-12 at (  13,   1,   7)
       Max VN number:   0.00E+00 at (  20,   1,  20)
 
       Time Step    6500   November  6, 2020  13:37:54
       Step Size:    0.805E-04 s, Total Time:       0.75 s
       Pressure Iterations:      6
       Maximum Velocity Error:  0.48E-02 on Mesh   1 at (   0   1  11)
       Maximum Pressure Error:  0.44E-07 on Mesh   1 at (  15   1  19)
       ---------------------------------------------------------------
       Max CFL number:  0.47E+00 at (  19,   1,   7)
       Max divergence:  0.91E-12 at (   7,   1,  20)
       Min divergence: -0.81E-12 at (  17,   1,  19)
       Max VN number:   0.00E+00 at (  20,   1,  20)
 
       Time Step    6600   November  6, 2020  13:37:54
       Step Size:    0.868E-04 s, Total Time:       0.76 s
       Pressure Iterations:      6
       Maximum Velocity Error:  0.54E-02 on Mesh   1 at (   0   1  13)
       Maximum Pressure Error:  0.53E-07 on Mesh   1 at (  11   1  19)
       ---------------------------------------------------------------
       Max CFL number:  0.48E+00 at (  18,   1,   7)
       Max divergence:  0.11E-11 at (   7,   1,  20)
       Min divergence: -0.91E-12 at (  18,   1,   7)
       Max VN number:   0.00E+00 at (  20,   1,  20)
 
       Time Step    6700   November  6, 2020  13:37:54
       Step Size:    0.844E-04 s, Total Time:       0.76 s
       Pressure Iterations:      6
       Maximum Velocity Error:  0.40E-02 on Mesh   1 at (   0   1   7)
       Maximum Pressure Error:  0.53E-07 on Mesh   1 at (  12   1  20)
       ---------------------------------------------------------------
       Max CFL number:  0.44E+00 at (  16,   1,   7)
       Max divergence:  0.12E-11 at (  12,   1,  19)
       Min divergence: -0.10E-11 at (   7,   1,  19)
       Max VN number:   0.00E+00 at (  20,   1,  20)
 
       Time Step    6800   November  6, 2020  13:37:55
       Step Size:    0.844E-04 s, Total Time:       0.77 s
       Pressure Iterations:      6
       Maximum Velocity Error:  0.64E-02 on Mesh   1 at (   0   1   8)
       Maximum Pressure Error:  0.47E-07 on Mesh   1 at (   7   1  20)
       ---------------------------------------------------------------
       Max CFL number:  0.44E+00 at (   8,   1,  10)
       Max divergence:  0.20E-11 at (  17,   1,  19)
       Min divergence: -0.74E-12 at (  14,   1,  20)
       Max VN number:   0.00E+00 at (  20,   1,  20)
 
       Time Step    6900   November  6, 2020  13:37:55
       Step Size:    0.740E-04 s, Total Time:       0.78 s
       Pressure Iterations:      6
       Maximum Velocity Error:  0.40E-02 on Mesh   1 at (   0   1  11)
       Maximum Pressure Error:  0.47E-07 on Mesh   1 at (  12   1  20)
       ---------------------------------------------------------------
       Max CFL number:  0.44E+00 at (  16,   1,  13)
       Max divergence:  0.10E-11 at (   7,   1,  20)
       Min divergence: -0.68E-12 at (  15,   1,   8)
       Max VN number:   0.00E+00 at (  20,   1,  20)
 
       Time Step    7000   November  6, 2020  13:37:56
       Step Size:    0.795E-04 s, Total Time:       0.79 s
       Pressure Iterations:      6
       Maximum Velocity Error:  0.35E-02 on Mesh   1 at (   0   1   8)
       Maximum Pressure Error:  0.42E-07 on Mesh   1 at (   7   1  20)
       ---------------------------------------------------------------
       Max CFL number:  0.48E+00 at (  13,   1,  15)
       Max divergence:  0.11E-11 at (   7,   1,  20)
       Min divergence: -0.68E-12 at (  19,   1,  19)
       Max VN number:   0.00E+00 at (  20,   1,  20)
 
       Time Step    7100   November  6, 2020  13:37:56
       Step Size:    0.838E-04 s, Total Time:       0.80 s
       Pressure Iterations:      6
       Maximum Velocity Error:  0.56E-02 on Mesh   1 at (   0   1   2)
       Maximum Pressure Error:  0.50E-07 on Mesh   1 at (   8   1  19)
       ---------------------------------------------------------------
       Max CFL number:  0.47E+00 at (   8,   1,  12)
       Max divergence:  0.11E-11 at (   8,   1,  20)
       Min divergence: -0.91E-12 at (   7,   1,  12)
       Max VN number:   0.00E+00 at (  20,   1,  20)
 
       Time Step    7200   November  6, 2020  13:37:56
       Step Size:    0.828E-04 s, Total Time:       0.80 s
       Pressure Iterations:      5
       Maximum Velocity Error:  0.74E-02 on Mesh   1 at (   0   1  17)
       Maximum Pressure Error:  0.44E-07 on Mesh   1 at (   8   1  20)
       ---------------------------------------------------------------
       Max CFL number:  0.45E+00 at (  17,   1,  12)
       Max divergence:  0.91E-12 at (   8,   1,  20)
       Min divergence: -0.11E-11 at (   6,   1,  19)
       Max VN number:   0.00E+00 at (  20,   1,  20)
 
       Time Step    7300   November  6, 2020  13:37:57
       Step Size:    0.806E-04 s, Total Time:       0.81 s
       Pressure Iterations:      6
       Maximum Velocity Error:  0.59E-02 on Mesh   1 at (  20   1   0)
       Maximum Pressure Error:  0.41E-07 on Mesh   1 at (  13   1  19)
       ---------------------------------------------------------------
       Max CFL number:  0.47E+00 at (   1,   1,   7)
       Max divergence:  0.87E-12 at (   3,   1,  19)
       Min divergence: -0.80E-12 at (  19,   1,  14)
       Max VN number:   0.00E+00 at (  20,   1,  20)
 
       Time Step    7400   November  6, 2020  13:37:57
       Step Size:    0.859E-04 s, Total Time:       0.82 s
       Pressure Iterations:      6
       Maximum Velocity Error:  0.76E-02 on Mesh   1 at (   8   1   0)
       Maximum Pressure Error:  0.46E-07 on Mesh   1 at (  15   1  19)
       ---------------------------------------------------------------
       Max CFL number:  0.46E+00 at (  10,   1,  20)
       Max divergence:  0.91E-12 at (  19,   1,   1)
       Min divergence: -0.10E-11 at (  14,   1,  20)
       Max VN number:   0.00E+00 at (  20,   1,  20)
 
       Time Step    7500   November  6, 2020  13:37:58
       Step Size:    0.825E-04 s, Total Time:       0.83 s
       Pressure Iterations:      7
       Maximum Velocity Error:  0.52E-02 on Mesh   1 at (  11   1   0)
       Maximum Pressure Error:  0.73E-07 on Mesh   1 at (  14   1  19)
       ---------------------------------------------------------------
       Max CFL number:  0.46E+00 at (   6,   1,  12)
       Max divergence:  0.19E-11 at (  14,   1,  19)
       Min divergence: -0.80E-12 at (  10,   1,   1)
       Max VN number:   0.00E+00 at (  20,   1,  20)
 
       Time Step    7600   November  6, 2020  13:37:58
       Step Size:    0.797E-04 s, Total Time:       0.84 s
       Pressure Iterations:      5
       Maximum Velocity Error:  0.70E-02 on Mesh   1 at (   0   1   8)
       Maximum Pressure Error:  0.46E-07 on Mesh   1 at (  20   1  20)
       ---------------------------------------------------------------
       Max CFL number:  0.40E+00 at (  18,   1,   2)
       Max divergence:  0.91E-12 at (   5,   1,  19)
       Min divergence: -0.63E-12 at (  12,   1,  20)
       Max VN number:   0.00E+00 at (  20,   1,  20)
 
       Time Step    7700   November  6, 2020  13:37:58
       Step Size:    0.852E-04 s, Total Time:       0.84 s
       Pressure Iterations:      6
       Maximum Velocity Error:  0.35E-02 on Mesh   1 at (   0   1   1)
       Maximum Pressure Error:  0.50E-07 on Mesh   1 at (   4   1  19)
       ---------------------------------------------------------------
       Max CFL number:  0.47E+00 at (   5,   1,  14)
       Max divergence:  0.97E-12 at (  19,   1,  19)
       Min divergence: -0.80E-12 at (   6,   1,  13)
       Max VN number:   0.00E+00 at (  20,   1,  20)
 
       Time Step    7800   November  6, 2020  13:37:59
       Step Size:    0.661E-04 s, Total Time:       0.85 s
       Pressure Iterations:      5
       Maximum Velocity Error:  0.63E-02 on Mesh   1 at (  11   1   0)
       Maximum Pressure Error:  0.43E-07 on Mesh   1 at (  13   1  20)
       ---------------------------------------------------------------
       Max CFL number:  0.43E+00 at (   5,   1,  13)
       Max divergence:  0.80E-12 at (  13,   1,  20)
       Min divergence: -0.10E-11 at (   5,   1,  20)
       Max VN number:   0.00E+00 at (  20,   1,  20)
 
       Time Step    7900   November  6, 2020  13:37:59
       Step Size:    0.799E-04 s, Total Time:       0.86 s
       Pressure Iterations:      6
       Maximum Velocity Error:  0.61E-02 on Mesh   1 at (   0   1   9)
       Maximum Pressure Error:  0.47E-07 on Mesh   1 at (   2   1  19)
       ---------------------------------------------------------------
       Max CFL number:  0.44E+00 at (  11,   1,  12)
       Max divergence:  0.14E-11 at (   6,   1,  19)
       Min divergence: -0.14E-11 at (  14,   1,  20)
       Max VN number:   0.00E+00 at (  20,   1,  20)
 
       Time Step    8000   November  6, 2020  13:37:59
       Step Size:    0.751E-04 s, Total Time:       0.87 s
       Pressure Iterations:      6
       Maximum Velocity Error:  0.38E-02 on Mesh   1 at (   0   1   5)
       Maximum Pressure Error:  0.61E-07 on Mesh   1 at (   6   1  20)
       ---------------------------------------------------------------
       Max CFL number:  0.40E+00 at (   9,   1,   5)
       Max divergence:  0.14E-11 at (  13,   1,  19)
       Min divergence: -0.91E-12 at (  14,   1,  19)
       Max VN number:   0.00E+00 at (  20,   1,  20)
 
       Time Step    8100   November  6, 2020  13:38:00
       Step Size:    0.724E-04 s, Total Time:       0.87 s
       Pressure Iterations:      5
       Maximum Velocity Error:  0.71E-02 on Mesh   1 at (  15   1   0)
       Maximum Pressure Error:  0.72E-07 on Mesh   1 at (   9   1  19)
       ---------------------------------------------------------------
       Max CFL number:  0.40E+00 at (   9,   1,   6)
       Max divergence:  0.97E-12 at (   7,   1,  19)
       Min divergence: -0.91E-12 at (   9,   1,  19)
       Max VN number:   0.00E+00 at (  20,   1,  20)
 
       Time Step    8200   November  6, 2020  13:38:00
       Step Size:    0.788E-04 s, Total Time:       0.88 s
       Pressure Iterations:      5
       Maximum Velocity Error:  0.67E-02 on Mesh   1 at (   0   1  10)
       Maximum Pressure Error:  0.60E-07 on Mesh   1 at (   7   1  19)
       ---------------------------------------------------------------
       Max CFL number:  0.47E+00 at (   4,   1,  10)
       Max divergence:  0.15E-11 at (  14,   1,  14)
       Min divergence: -0.18E-11 at (  20,   1,  20)
       Max VN number:   0.00E+00 at (  20,   1,  20)
 
       Time Step    8300   November  6, 2020  13:38:00
       Step Size:    0.778E-04 s, Total Time:       0.89 s
       Pressure Iterations:      5
       Maximum Velocity Error:  0.75E-02 on Mesh   1 at (   0   1  12)
       Maximum Pressure Error:  0.58E-07 on Mesh   1 at (  12   1  20)
       ---------------------------------------------------------------
       Max CFL number:  0.43E+00 at (  19,   1,  12)
       Max divergence:  0.10E-11 at (  12,   1,  19)
       Min divergence: -0.91E-12 at (  19,   1,   1)
       Max VN number:   0.00E+00 at (  20,   1,  20)
 
       Time Step    8400   November  6, 2020  13:38:01
       Step Size:    0.714E-04 s, Total Time:       0.90 s
       Pressure Iterations:      5
       Maximum Velocity Error:  0.70E-02 on Mesh   1 at (   0   1  13)
       Maximum Pressure Error:  0.54E-07 on Mesh   1 at (  12   1  20)
       ---------------------------------------------------------------
       Max CFL number:  0.45E+00 at (  10,   1,   5)
       Max divergence:  0.14E-11 at (  11,   1,  18)
       Min divergence: -0.13E-11 at (  12,   1,  18)
       Max VN number:   0.00E+00 at (  20,   1,  20)
 
       Time Step    8500   November  6, 2020  13:38:01
       Step Size:    0.847E-04 s, Total Time:       0.91 s
       Pressure Iterations:      6
       Maximum Velocity Error:  0.39E-02 on Mesh   1 at (   0   1  13)
       Maximum Pressure Error:  0.48E-07 on Mesh   1 at (  11   1  20)
       ---------------------------------------------------------------
       Max CFL number:  0.47E+00 at (  18,   1,  14)
       Max divergence:  0.11E-11 at (   6,   1,  19)
       Min divergence: -0.11E-11 at (  18,   1,  19)
       Max VN number:   0.00E+00 at (  20,   1,  20)
 
       Time Step    8600   November  6, 2020  13:38:02
       Step Size:    0.747E-04 s, Total Time:       0.91 s
       Pressure Iterations:      5
       Maximum Velocity Error:  0.73E-02 on Mesh   1 at (   0   1  12)
       Maximum Pressure Error:  0.55E-07 on Mesh   1 at (   4   1  19)
       ---------------------------------------------------------------
       Max CFL number:  0.44E+00 at (  20,   1,  11)
       Max divergence:  0.12E-11 at (   3,   1,  19)
       Min divergence: -0.10E-11 at (  13,   1,  19)
       Max VN number:   0.00E+00 at (  20,   1,  20)
 
       Time Step    8700   November  6, 2020  13:38:02
       Step Size:    0.763E-04 s, Total Time:       0.92 s
       Pressure Iterations:      6
       Maximum Velocity Error:  0.37E-02 on Mesh   1 at (   0   1  13)
       Maximum Pressure Error:  0.54E-07 on Mesh   1 at (   2   1  18)
       ---------------------------------------------------------------
       Max CFL number:  0.40E+00 at (   1,   1,  16)
       Max divergence:  0.10E-11 at (   8,   1,   1)
       Min divergence: -0.11E-11 at (  16,   1,  20)
       Max VN number:   0.00E+00 at (  20,   1,  20)
 
       Time Step    8800   November  6, 2020  13:38:02
       Step Size:    0.763E-04 s, Total Time:       0.93 s
       Pressure Iterations:      5
       Maximum Velocity Error:  0.70E-02 on Mesh   1 at (   0   1   2)
       Maximum Pressure Error:  0.68E-07 on Mesh   1 at (   4   1  19)
       ---------------------------------------------------------------
       Max CFL number:  0.41E+00 at (   1,   1,   5)
       Max divergence:  0.12E-11 at (   1,   1,  19)
       Min divergence: -0.11E-11 at (  11,   1,  19)
       Max VN number:   0.00E+00 at (  20,   1,  20)
 
       Time Step    8900   November  6, 2020  13:38:03
       Step Size:    0.793E-04 s, Total Time:       0.94 s
       Pressure Iterations:      6
       Maximum Velocity Error:  0.50E-02 on Mesh   1 at (   6   1  21)
       Maximum Pressure Error:  0.58E-07 on Mesh   1 at (   2   1  19)
       ---------------------------------------------------------------
       Max CFL number:  0.44E+00 at (  14,   1,  11)
       Max divergence:  0.14E-11 at (   3,   1,  19)
       Min divergence: -0.14E-11 at (  13,   1,  19)
       Max VN number:   0.00E+00 at (  20,   1,  20)
 
       Time Step    9000   November  6, 2020  13:38:03
       Step Size:    0.793E-04 s, Total Time:       0.94 s
       Pressure Iterations:      6
       Maximum Velocity Error:  0.45E-02 on Mesh   1 at (  11   1   0)
       Maximum Pressure Error:  0.47E-07 on Mesh   1 at (   1   1  19)
       ---------------------------------------------------------------
       Max CFL number:  0.48E+00 at (  13,   1,  13)
       Max divergence:  0.14E-11 at (   5,   1,  18)
       Min divergence: -0.16E-11 at (  12,   1,  19)
       Max VN number:   0.00E+00 at (  20,   1,  20)
 
       Time Step    9100   November  6, 2020  13:38:03
       Step Size:    0.783E-04 s, Total Time:       0.95 s
       Pressure Iterations:      6
       Maximum Velocity Error:  0.60E-02 on Mesh   1 at (   0   1  20)
       Maximum Pressure Error:  0.55E-07 on Mesh   1 at (   4   1  18)
       ---------------------------------------------------------------
       Max CFL number:  0.44E+00 at (  10,   1,   9)
       Max divergence:  0.16E-11 at (   3,   1,   1)
       Min divergence: -0.11E-11 at (   4,   1,   1)
       Max VN number:   0.00E+00 at (  20,   1,  20)
 
       Time Step    9200   November  6, 2020  13:38:04
       Step Size:    0.736E-04 s, Total Time:       0.96 s
       Pressure Iterations:      6
       Maximum Velocity Error:  0.41E-02 on Mesh   1 at (   0   1  14)
       Maximum Pressure Error:  0.54E-07 on Mesh   1 at (   7   1  19)
       ---------------------------------------------------------------
       Max CFL number:  0.40E+00 at (  16,   1,   8)
       Max divergence:  0.11E-11 at (  11,   1,  19)
       Min divergence: -0.11E-11 at (   3,   1,   2)
       Max VN number:   0.00E+00 at (  20,   1,  20)
 
       Time Step    9300   November  6, 2020  13:38:04
       Step Size:    0.716E-04 s, Total Time:       0.97 s
       Pressure Iterations:      6
       Maximum Velocity Error:  0.55E-02 on Mesh   1 at (   0   1  20)
       Maximum Pressure Error:  0.65E-07 on Mesh   1 at (  20   1  18)
       ---------------------------------------------------------------
       Max CFL number:  0.44E+00 at (  12,   1,  20)
       Max divergence:  0.20E-11 at (  11,   1,  19)
       Min divergence: -0.18E-11 at (  12,   1,  19)
       Max VN number:   0.00E+00 at (  20,   1,  20)
 
       Time Step    9400   November  6, 2020  13:38:05
       Step Size:    0.688E-04 s, Total Time:       0.97 s
       Pressure Iterations:      6
       Maximum Velocity Error:  0.53E-02 on Mesh   1 at (   1   1   0)
       Maximum Pressure Error:  0.49E-07 on Mesh   1 at (   9   1  19)
       ---------------------------------------------------------------
       Max CFL number:  0.43E+00 at (   7,   1,   7)
       Max divergence:  0.14E-11 at (  17,   1,   2)
       Min divergence: -0.11E-11 at (  19,   1,  19)
       Max VN number:   0.00E+00 at (  20,   1,  20)
 
       Time Step    9500   November  6, 2020  13:38:05
       Step Size:    0.676E-04 s, Total Time:       0.98 s
       Pressure Iterations:      5
       Maximum Velocity Error:  0.45E-02 on Mesh   1 at (   8   1   0)
       Maximum Pressure Error:  0.53E-07 on Mesh   1 at (  12   1  19)
       ---------------------------------------------------------------
       Max CFL number:  0.43E+00 at (  19,   1,   2)
       Max divergence:  0.14E-11 at (  19,   1,   3)
       Min divergence: -0.91E-12 at (   7,   1,  17)
       Max VN number:   0.00E+00 at (  20,   1,  20)
 
       Time Step    9600   November  6, 2020  13:38:05
       Step Size:    0.785E-04 s, Total Time:       0.99 s
       Pressure Iterations:      6
       Maximum Velocity Error:  0.48E-02 on Mesh   1 at (   0   1   7)
       Maximum Pressure Error:  0.51E-07 on Mesh   1 at (  12   1  18)
       ---------------------------------------------------------------
       Max CFL number:  0.47E+00 at (   8,   1,   7)
       Max divergence:  0.11E-11 at (  19,   1,  14)
       Min divergence: -0.91E-12 at (  14,   1,   5)
       Max VN number:   0.00E+00 at (  20,   1,  20)
 
       Time Step    9700   November  6, 2020  13:38:06
       Step Size:    0.758E-04 s, Total Time:       1.00 s
       Pressure Iterations:      6
       Maximum Velocity Error:  0.72E-02 on Mesh   1 at (   0   1   8)
       Maximum Pressure Error:  0.55E-07 on Mesh   1 at (  12   1  19)
       ---------------------------------------------------------------
       Max CFL number:  0.45E+00 at (   3,   1,   5)
       Max divergence:  0.11E-11 at (  12,   1,  19)
       Min divergence: -0.10E-11 at (   5,   1,  17)
       Max VN number:   0.00E+00 at (  20,   1,  20)
 
       Time Step    9800   November  6, 2020  13:38:06
       Step Size:    0.631E-04 s, Total Time:       1.00 s
       Pressure Iterations:      5
       Maximum Velocity Error:  0.75E-02 on Mesh   1 at (   0   1   2)
       Maximum Pressure Error:  0.51E-07 on Mesh   1 at (   2   1   1)
       ---------------------------------------------------------------
       Max CFL number:  0.45E+00 at (   5,   1,   5)
       Max divergence:  0.11E-11 at (   1,   1,   1)
       Min divergence: -0.12E-11 at (  15,   1,  20)
       Max VN number:   0.00E+00 at (  20,   1,  20)
 
       Time Step    9900   November  6, 2020  13:38:06
       Step Size:    0.735E-04 s, Total Time:       1.01 s
       Pressure Iterations:      5
       Maximum Velocity Error:  0.70E-02 on Mesh   1 at (   0   1  10)
       Maximum Pressure Error:  0.47E-07 on Mesh   1 at (  11   1  19)
       ---------------------------------------------------------------
       Max CFL number:  0.45E+00 at (  13,   1,   5)
       Max divergence:  0.10E-11 at (   8,   1,  18)
       Min divergence: -0.11E-11 at (  16,   1,  19)
       Max VN number:   0.00E+00 at (  20,   1,  20)
 
       Time Step   10000   November  6, 2020  13:38:07
       Step Size:    0.716E-04 s, Total Time:       1.02 s
       Pressure Iterations:      6
       Maximum Velocity Error:  0.48E-02 on Mesh   1 at (  15   1   0)
       Maximum Pressure Error:  0.39E-07 on Mesh   1 at (  12   1  18)
       ---------------------------------------------------------------
       Max CFL number:  0.44E+00 at (   8,   1,   5)
       Max divergence:  0.11E-11 at (  19,   1,  18)
       Min divergence: -0.11E-11 at (  11,   1,  19)
       Max VN number:   0.00E+00 at (  20,   1,  20)
 
       Time Step   10100   November  6, 2020  13:38:07
       Step Size:    0.670E-04 s, Total Time:       1.02 s
       Pressure Iterations:      6
       Maximum Velocity Error:  0.51E-02 on Mesh   1 at (   0   1  11)
       Maximum Pressure Error:  0.47E-07 on Mesh   1 at (  16   1  18)
       ---------------------------------------------------------------
       Max CFL number:  0.46E+00 at (   8,   1,   6)
       Max divergence:  0.11E-11 at (  19,   1,  18)
       Min divergence: -0.11E-11 at (   9,   1,   6)
       Max VN number:   0.00E+00 at (  20,   1,  20)
 
       Time Step   10200   November  6, 2020  13:38:08
       Step Size:    0.660E-04 s, Total Time:       1.03 s
       Pressure Iterations:      5
       Maximum Velocity Error:  0.72E-02 on Mesh   1 at (   0   1  17)
       Maximum Pressure Error:  0.47E-07 on Mesh   1 at (   6   1  18)
       ---------------------------------------------------------------
       Max CFL number:  0.49E+00 at (   7,   1,   7)
       Max divergence:  0.14E-11 at (   7,   1,   7)
       Min divergence: -0.13E-11 at (   4,   1,  19)
       Max VN number:   0.00E+00 at (  20,   1,  20)
 
       Time Step   10300   November  6, 2020  13:38:08
       Step Size:    0.687E-04 s, Total Time:       1.04 s
       Pressure Iterations:      5
       Maximum Velocity Error:  0.64E-02 on Mesh   1 at (   0   1   7)
       Maximum Pressure Error:  0.60E-07 on Mesh   1 at (  13   1  19)
       ---------------------------------------------------------------
       Max CFL number:  0.42E+00 at (   7,   1,   9)
       Max divergence:  0.13E-11 at (  13,   1,  19)
       Min divergence: -0.10E-11 at (  16,   1,  19)
       Max VN number:   0.00E+00 at (  20,   1,  20)
 
       Time Step   10400   November  6, 2020  13:38:08
       Step Size:    0.790E-04 s, Total Time:       1.04 s
       Pressure Iterations:      7
       Maximum Velocity Error:  0.64E-02 on Mesh   1 at (   0   1   9)
       Maximum Pressure Error:  0.60E-07 on Mesh   1 at (   8   1  19)
       ---------------------------------------------------------------
       Max CFL number:  0.44E+00 at (   2,   1,   1)
       Max divergence:  0.18E-11 at (  17,   1,  19)
       Min divergence: -0.11E-11 at (   1,   1,  18)
       Max VN number:   0.00E+00 at (  20,   1,  20)
 
       Time Step   10500   November  6, 2020  13:38:09
       Step Size:    0.759E-04 s, Total Time:       1.05 s
       Pressure Iterations:      7
       Maximum Velocity Error:  0.50E-02 on Mesh   1 at (   8   1   0)
       Maximum Pressure Error:  0.49E-07 on Mesh   1 at (  15   1  18)
       ---------------------------------------------------------------
       Max CFL number:  0.43E+00 at (  18,   1,  18)
       Max divergence:  0.98E-12 at (  20,   1,  19)
       Min divergence: -0.14E-11 at (  15,   1,  20)
       Max VN number:   0.00E+00 at (  20,   1,  20)
 
       Time Step   10600   November  6, 2020  13:38:09
       Step Size:    0.740E-04 s, Total Time:       1.06 s
       Pressure Iterations:      6
       Maximum Velocity Error:  0.59E-02 on Mesh   1 at (  16   1   0)
       Maximum Pressure Error:  0.59E-07 on Mesh   1 at (   8   1  19)
       ---------------------------------------------------------------
       Max CFL number:  0.42E+00 at (  13,   1,   9)
       Max divergence:  0.16E-11 at (   9,   1,  19)
       Min divergence: -0.91E-12 at (   3,   1,  16)
       Max VN number:   0.00E+00 at (  20,   1,  20)
 
       Time Step   10700   November  6, 2020  13:38:09
       Step Size:    0.648E-04 s, Total Time:       1.07 s
       Pressure Iterations:      5
       Maximum Velocity Error:  0.53E-02 on Mesh   1 at (   6   1   0)
       Maximum Pressure Error:  0.52E-07 on Mesh   1 at (  14   1  19)
       ---------------------------------------------------------------
       Max CFL number:  0.42E+00 at (  12,   1,  10)
       Max divergence:  0.14E-11 at (   7,   1,  19)
       Min divergence: -0.91E-12 at (  16,   1,   9)
       Max VN number:   0.00E+00 at (  20,   1,  20)
 
       Time Step   10800   November  6, 2020  13:38:10
       Step Size:    0.676E-04 s, Total Time:       1.07 s
       Pressure Iterations:      6
       Maximum Velocity Error:  0.49E-02 on Mesh   1 at (   0   1   1)
       Maximum Pressure Error:  0.54E-07 on Mesh   1 at (   4   1  20)
       ---------------------------------------------------------------
       Max CFL number:  0.45E+00 at (   2,   1,   9)
       Max divergence:  0.16E-11 at (   1,   1,  19)
       Min divergence: -0.11E-11 at (  16,   1,  17)
       Max VN number:   0.00E+00 at (  20,   1,  20)
 
       Time Step   10900   November  6, 2020  13:38:10
       Step Size:    0.669E-04 s, Total Time:       1.08 s
       Pressure Iterations:      5
       Maximum Velocity Error:  0.44E-02 on Mesh   1 at (   0   1  11)
       Maximum Pressure Error:  0.45E-07 on Mesh   1 at (  19   1  20)
       ---------------------------------------------------------------
       Max CFL number:  0.47E+00 at (  15,   1,   4)
       Max divergence:  0.14E-11 at (   9,   1,  18)
       Min divergence: -0.16E-11 at (   7,   1,  20)
       Max VN number:   0.00E+00 at (  20,   1,  20)
 
       Time Step   11000   November  6, 2020  13:38:11
       Step Size:    0.701E-04 s, Total Time:       1.09 s
       Pressure Iterations:      6
       Maximum Velocity Error:  0.70E-02 on Mesh   1 at (   9   1   0)
       Maximum Pressure Error:  0.52E-07 on Mesh   1 at (   7   1  18)
       ---------------------------------------------------------------
       Max CFL number:  0.45E+00 at (  16,   1,   4)
       Max divergence:  0.18E-11 at (   8,   1,   1)
       Min divergence: -0.13E-11 at (   4,   1,  20)
       Max VN number:   0.00E+00 at (  20,   1,  20)
 
       Time Step   11100   November  6, 2020  13:38:11
       Step Size:    0.624E-04 s, Total Time:       1.09 s
       Pressure Iterations:      5
       Maximum Velocity Error:  0.67E-02 on Mesh   1 at (   0   1   4)
       Maximum Pressure Error:  0.59E-07 on Mesh   1 at (   4   1  19)
       ---------------------------------------------------------------
       Max CFL number:  0.40E+00 at (  17,   1,   4)
       Max divergence:  0.13E-11 at (  10,   1,  19)
       Min divergence: -0.14E-11 at (   4,   1,  20)
       Max VN number:   0.00E+00 at (  20,   1,  20)
 
       Time Step   11200   November  6, 2020  13:38:11
       Step Size:    0.680E-04 s, Total Time:       1.10 s
       Pressure Iterations:      6
       Maximum Velocity Error:  0.64E-02 on Mesh   1 at (   0   1   2)
       Maximum Pressure Error:  0.59E-07 on Mesh   1 at (   4   1  19)
       ---------------------------------------------------------------
       Max CFL number:  0.41E+00 at (   2,   1,  14)
       Max divergence:  0.14E-11 at (   2,   1,  14)
       Min divergence: -0.11E-11 at (   4,   1,  20)
       Max VN number:   0.00E+00 at (  20,   1,  20)
 
       Time Step   11300   November  6, 2020  13:38:12
       Step Size:    0.680E-04 s, Total Time:       1.11 s
       Pressure Iterations:      6
       Maximum Velocity Error:  0.49E-02 on Mesh   1 at (   0   1   8)
       Maximum Pressure Error:  0.66E-07 on Mesh   1 at (   4   1  19)
       ---------------------------------------------------------------
       Max CFL number:  0.47E+00 at (  12,   1,   6)
       Max divergence:  0.11E-11 at (   3,   1,  19)
       Min divergence: -0.11E-11 at (   7,   1,  19)
       Max VN number:   0.00E+00 at (  20,   1,  20)
 
       Time Step   11400   November  6, 2020  13:38:12
       Step Size:    0.732E-04 s, Total Time:       1.11 s
       Pressure Iterations:      6
       Maximum Velocity Error:  0.69E-02 on Mesh   1 at (   0   1   1)
       Maximum Pressure Error:  0.91E-07 on Mesh   1 at (  17   1  19)
       ---------------------------------------------------------------
       Max CFL number:  0.44E+00 at (   7,   1,   6)
       Max divergence:  0.17E-11 at (  17,   1,  19)
       Min divergence: -0.14E-11 at (   4,   1,  20)
       Max VN number:   0.00E+00 at (  20,   1,  20)
 
       Time Step   11500   November  6, 2020  13:38:12
       Step Size:    0.645E-04 s, Total Time:       1.12 s
       Pressure Iterations:      6
       Maximum Velocity Error:  0.43E-02 on Mesh   1 at (   0   1  12)
       Maximum Pressure Error:  0.55E-07 on Mesh   1 at (   8   1  19)
       ---------------------------------------------------------------
       Max CFL number:  0.47E+00 at (  16,   1,   9)
       Max divergence:  0.18E-11 at (  14,   1,   1)
[...]
       Maximum Pressure Error:  0.22E-06 on Mesh   1 at (  10   1   9)
       ---------------------------------------------------------------
       Max CFL number:  0.44E+00 at (  13,   1,  16)
       Max divergence:  0.36E-11 at (  14,   1,  16)
       Min divergence: -0.41E-11 at (  18,   1,   8)
       Max VN number:   0.00E+00 at (  20,   1,  20)
 
       Time Step  110300   November  6, 2020  13:44:34
       Step Size:    0.257E-04 s, Total Time:       5.14 s
       Pressure Iterations:      5
       Maximum Velocity Error:  0.74E-02 on Mesh   1 at (   0   1   3)
       Maximum Pressure Error:  0.30E-06 on Mesh   1 at (  15   1   6)
       ---------------------------------------------------------------
       Max CFL number:  0.45E+00 at (  14,   1,   7)
       Max divergence:  0.27E-11 at (   1,   1,  19)
       Min divergence: -0.30E-11 at (   3,   1,  20)
       Max VN number:   0.00E+00 at (  20,   1,  20)
 
       Time Step  110400   November  6, 2020  13:44:34
       Step Size:    0.306E-04 s, Total Time:       5.14 s
       Pressure Iterations:      7
       Maximum Velocity Error:  0.58E-02 on Mesh   1 at (   0   1   7)
       Maximum Pressure Error:  0.18E-06 on Mesh   1 at (  10   1   8)
       ---------------------------------------------------------------
       Max CFL number:  0.45E+00 at (   9,   1,   7)
       Max divergence:  0.40E-11 at (   9,   1,  19)
       Min divergence: -0.41E-11 at (   3,   1,  20)
       Max VN number:   0.00E+00 at (  20,   1,  20)
 
       Time Step  110500   November  6, 2020  13:44:35
       Step Size:    0.306E-04 s, Total Time:       5.14 s
       Pressure Iterations:      6
       Maximum Velocity Error:  0.74E-02 on Mesh   1 at (   0   1  17)
       Maximum Pressure Error:  0.31E-06 on Mesh   1 at (   9   1  16)
       ---------------------------------------------------------------
       Max CFL number:  0.49E+00 at (  11,   1,  10)
       Max divergence:  0.41E-11 at (   4,   1,   1)
       Min divergence: -0.36E-11 at (   4,   1,   2)
       Max VN number:   0.00E+00 at (  20,   1,  20)
 
       Time Step  110600   November  6, 2020  13:44:35
       Step Size:    0.299E-04 s, Total Time:       5.15 s
       Pressure Iterations:      6
       Maximum Velocity Error:  0.56E-02 on Mesh   1 at (  19   1   0)
       Maximum Pressure Error:  0.37E-06 on Mesh   1 at (   7   1   8)
       ---------------------------------------------------------------
       Max CFL number:  0.46E+00 at (  13,   1,   4)
       Max divergence:  0.52E-11 at (  19,   1,  16)
       Min divergence: -0.45E-11 at (  19,   1,  15)
       Max VN number:   0.00E+00 at (  20,   1,  20)
 
       Time Step  110700   November  6, 2020  13:44:36
       Step Size:    0.281E-04 s, Total Time:       5.15 s
       Pressure Iterations:      7
       Maximum Velocity Error:  0.64E-02 on Mesh   1 at (   0   1  10)
       Maximum Pressure Error:  0.21E-06 on Mesh   1 at (  11   1   9)
       ---------------------------------------------------------------
       Max CFL number:  0.42E+00 at (  10,   1,   8)
       Max divergence:  0.36E-11 at (   1,   1,   7)
       Min divergence: -0.27E-11 at (  14,   1,   3)
       Max VN number:   0.00E+00 at (  20,   1,  20)
 
       Time Step  110800   November  6, 2020  13:44:36
       Step Size:    0.296E-04 s, Total Time:       5.15 s
       Pressure Iterations:      6
       Maximum Velocity Error:  0.55E-02 on Mesh   1 at (  11   1   0)
       Maximum Pressure Error:  0.21E-06 on Mesh   1 at (   5   1   8)
       ---------------------------------------------------------------
       Max CFL number:  0.44E+00 at (  14,   1,   3)
       Max divergence:  0.36E-11 at (   8,   1,  11)
       Min divergence: -0.32E-11 at (  12,   1,   2)
       Max VN number:   0.00E+00 at (  20,   1,  20)
 
       Time Step  110900   November  6, 2020  13:44:36
       Step Size:    0.286E-04 s, Total Time:       5.16 s
       Pressure Iterations:      6
       Maximum Velocity Error:  0.50E-02 on Mesh   1 at (   0   1  15)
       Maximum Pressure Error:  0.25E-06 on Mesh   1 at (  13   1   8)
       ---------------------------------------------------------------
       Max CFL number:  0.48E+00 at (  20,   1,   4)
       Max divergence:  0.27E-11 at (  19,   1,  14)
       Min divergence: -0.41E-11 at (  13,   1,   8)
       Max VN number:   0.00E+00 at (  20,   1,  20)
 
       Time Step  111000   November  6, 2020  13:44:37
       Step Size:    0.290E-04 s, Total Time:       5.16 s
       Pressure Iterations:      7
       Maximum Velocity Error:  0.41E-02 on Mesh   1 at (   0   1  14)
       Maximum Pressure Error:  0.28E-06 on Mesh   1 at (  18   1   9)
       ---------------------------------------------------------------
       Max CFL number:  0.43E+00 at (  14,   1,   4)
       Max divergence:  0.36E-11 at (  14,   1,   4)
       Min divergence: -0.36E-11 at (  11,   1,   6)
       Max VN number:   0.00E+00 at (  20,   1,  20)
 
       Time Step  111100   November  6, 2020  13:44:37
       Step Size:    0.224E-04 s, Total Time:       5.16 s
       Pressure Iterations:      6
       Maximum Velocity Error:  0.59E-02 on Mesh   1 at (   0   1   4)
       Maximum Pressure Error:  0.21E-06 on Mesh   1 at (   7   1   8)
       ---------------------------------------------------------------
       Max CFL number:  0.46E+00 at (   6,   1,   7)
       Max divergence:  0.55E-11 at (   6,   1,   7)
       Min divergence: -0.36E-11 at (  20,   1,   9)
       Max VN number:   0.00E+00 at (  20,   1,  20)
 
       Time Step  111200   November  6, 2020  13:44:37
       Step Size:    0.271E-04 s, Total Time:       5.16 s
       Pressure Iterations:      6
       Maximum Velocity Error:  0.56E-02 on Mesh   1 at (   0   1  10)
       Maximum Pressure Error:  0.20E-06 on Mesh   1 at (  17   1   9)
       ---------------------------------------------------------------
       Max CFL number:  0.45E+00 at (  18,   1,   6)
       Max divergence:  0.34E-11 at (   9,   1,  16)
       Min divergence: -0.27E-11 at (  13,   1,   5)
       Max VN number:   0.00E+00 at (  20,   1,  20)
 
       Time Step  111300   November  6, 2020  13:44:38
       Step Size:    0.281E-04 s, Total Time:       5.17 s
       Pressure Iterations:      5
       Maximum Velocity Error:  0.70E-02 on Mesh   1 at (   0   1  13)
       Maximum Pressure Error:  0.20E-06 on Mesh   1 at (  20   1   8)
       ---------------------------------------------------------------
       Max CFL number:  0.46E+00 at (  13,   1,   6)
       Max divergence:  0.27E-11 at (  17,   1,  16)
       Min divergence: -0.23E-11 at (   4,   1,   6)
       Max VN number:   0.00E+00 at (  20,   1,  20)
 
       Time Step  111400   November  6, 2020  13:44:38
       Step Size:    0.324E-04 s, Total Time:       5.17 s
       Pressure Iterations:      7
       Maximum Velocity Error:  0.49E-02 on Mesh   1 at (   5   1   0)
       Maximum Pressure Error:  0.21E-06 on Mesh   1 at (   5   1   9)
       ---------------------------------------------------------------
       Max CFL number:  0.47E+00 at (   6,   1,   1)
       Max divergence:  0.45E-11 at (   6,   1,   1)
       Min divergence: -0.27E-11 at (  18,   1,  12)
       Max VN number:   0.00E+00 at (  20,   1,  20)
 
       Time Step  111500   November  6, 2020  13:44:39
       Step Size:    0.280E-04 s, Total Time:       5.17 s
       Pressure Iterations:      7
       Maximum Velocity Error:  0.58E-02 on Mesh   1 at (  13   1   0)
       Maximum Pressure Error:  0.23E-06 on Mesh   1 at (  16   1   9)
       ---------------------------------------------------------------
       Max CFL number:  0.41E+00 at (  13,   1,  12)
       Max divergence:  0.36E-11 at (   5,   1,  16)
       Min divergence: -0.45E-11 at (   6,   1,  15)
       Max VN number:   0.00E+00 at (  20,   1,  20)
 
       Time Step  111600   November  6, 2020  13:44:39
       Step Size:    0.288E-04 s, Total Time:       5.18 s
       Pressure Iterations:      6
       Maximum Velocity Error:  0.68E-02 on Mesh   1 at (  16   1   0)
       Maximum Pressure Error:  0.18E-06 on Mesh   1 at (  15   1   8)
       ---------------------------------------------------------------
       Max CFL number:  0.42E+00 at (  14,   1,   8)
       Max divergence:  0.36E-11 at (  19,   1,  14)
       Min divergence: -0.36E-11 at (  13,   1,   5)
       Max VN number:   0.00E+00 at (  20,   1,  20)
 
       Time Step  111700   November  6, 2020  13:44:39
       Step Size:    0.262E-04 s, Total Time:       5.18 s
       Pressure Iterations:      6
       Maximum Velocity Error:  0.38E-02 on Mesh   1 at (   1   1   0)
       Maximum Pressure Error:  0.23E-06 on Mesh   1 at (  17   1   9)
       ---------------------------------------------------------------
       Max CFL number:  0.45E+00 at (   4,   1,   9)
       Max divergence:  0.36E-11 at (   1,   1,  11)
       Min divergence: -0.36E-11 at (   5,   1,   9)
       Max VN number:   0.00E+00 at (  20,   1,  20)
 
       Time Step  111800   November  6, 2020  13:44:40
       Step Size:    0.265E-04 s, Total Time:       5.18 s
       Pressure Iterations:      7
       Maximum Velocity Error:  0.57E-02 on Mesh   1 at (   0   1  20)
       Maximum Pressure Error:  0.23E-06 on Mesh   1 at (  13   1  10)
       ---------------------------------------------------------------
       Max CFL number:  0.43E+00 at (   9,   1,   9)
       Max divergence:  0.45E-11 at (  17,   1,  16)
       Min divergence: -0.30E-11 at (   4,   1,   3)
       Max VN number:   0.00E+00 at (  20,   1,  20)
 
       Time Step  111900   November  6, 2020  13:44:40
       Step Size:    0.285E-04 s, Total Time:       5.18 s
       Pressure Iterations:      6
       Maximum Velocity Error:  0.52E-02 on Mesh   1 at (   0   1  13)
       Maximum Pressure Error:  0.35E-06 on Mesh   1 at (   7   1   8)
       ---------------------------------------------------------------
       Max CFL number:  0.43E+00 at (   1,   1,  13)
       Max divergence:  0.45E-11 at (  17,   1,   4)
       Min divergence: -0.36E-11 at (  16,   1,   4)
       Max VN number:   0.00E+00 at (  20,   1,  20)
 
       Time Step  112000   November  6, 2020  13:44:41
       Step Size:    0.289E-04 s, Total Time:       5.19 s
       Pressure Iterations:      7
       Maximum Velocity Error:  0.59E-02 on Mesh   1 at (  10   1   0)
       Maximum Pressure Error:  0.22E-06 on Mesh   1 at (  20   1   8)
       ---------------------------------------------------------------
       Max CFL number:  0.41E+00 at (   8,   1,  17)
       Max divergence:  0.23E-11 at (   5,   1,  16)
       Min divergence: -0.32E-11 at (  10,   1,  12)
       Max VN number:   0.00E+00 at (  20,   1,  20)
 
       Time Step  112100   November  6, 2020  13:44:41
       Step Size:    0.312E-04 s, Total Time:       5.19 s
       Pressure Iterations:      7
       Maximum Velocity Error:  0.61E-02 on Mesh   1 at (  11   1   0)
       Maximum Pressure Error:  0.35E-06 on Mesh   1 at (  13   1   7)
       ---------------------------------------------------------------
       Max CFL number:  0.43E+00 at (  11,   1,   6)
       Max divergence:  0.41E-11 at (  13,   1,   7)
       Min divergence: -0.36E-11 at (  13,   1,   8)
       Max VN number:   0.00E+00 at (  20,   1,  20)
 
       Time Step  112200   November  6, 2020  13:44:41
       Step Size:    0.241E-04 s, Total Time:       5.19 s
       Pressure Iterations:      5
       Maximum Velocity Error:  0.68E-02 on Mesh   1 at (   0   1  14)
       Maximum Pressure Error:  0.24E-06 on Mesh   1 at (  11   1  17)
       ---------------------------------------------------------------
       Max CFL number:  0.43E+00 at (  18,   1,   6)
       Max divergence:  0.41E-11 at (  10,   1,  10)
       Min divergence: -0.43E-11 at (  18,   1,   5)
       Max VN number:   0.00E+00 at (  20,   1,  20)
 
       Time Step  112300   November  6, 2020  13:44:42
       Step Size:    0.292E-04 s, Total Time:       5.20 s
       Pressure Iterations:      6
       Maximum Velocity Error:  0.65E-02 on Mesh   1 at (   9   1   0)
       Maximum Pressure Error:  0.24E-06 on Mesh   1 at (   7   1   2)
       ---------------------------------------------------------------
       Max CFL number:  0.41E+00 at (   3,   1,  10)
       Max divergence:  0.36E-11 at (   3,   1,  10)
       Min divergence: -0.27E-11 at (   7,   1,  15)
       Max VN number:   0.00E+00 at (  20,   1,  20)
 
       Time Step  112400   November  6, 2020  13:44:42
       Step Size:    0.269E-04 s, Total Time:       5.20 s
       Pressure Iterations:      6
       Maximum Velocity Error:  0.48E-02 on Mesh   1 at (   0   1   7)
       Maximum Pressure Error:  0.23E-06 on Mesh   1 at (  15   1  17)
       ---------------------------------------------------------------
       Max CFL number:  0.41E+00 at (   5,   1,  11)
       Max divergence:  0.30E-11 at (  19,   1,  19)
       Min divergence: -0.27E-11 at (   5,   1,   8)
       Max VN number:   0.00E+00 at (  20,   1,  20)
 
       Time Step  112500   November  6, 2020  13:44:43
       Step Size:    0.253E-04 s, Total Time:       5.20 s
       Pressure Iterations:      6
       Maximum Velocity Error:  0.64E-02 on Mesh   1 at (  10   1   0)
       Maximum Pressure Error:  0.24E-06 on Mesh   1 at (  13   1  19)
       ---------------------------------------------------------------
       Max CFL number:  0.45E+00 at (  12,   1,  18)
       Max divergence:  0.36E-11 at (   7,   1,  19)
       Min divergence: -0.32E-11 at (  14,   1,  18)
       Max VN number:   0.00E+00 at (  20,   1,  20)
 
       Time Step  112600   November  6, 2020  13:44:43
       Step Size:    0.298E-04 s, Total Time:       5.20 s
       Pressure Iterations:      7
       Maximum Velocity Error:  0.70E-02 on Mesh   1 at (   5   1   0)
       Maximum Pressure Error:  0.18E-06 on Mesh   1 at (  12   1   7)
       ---------------------------------------------------------------
       Max CFL number:  0.41E+00 at (  12,   1,  19)
       Max divergence:  0.27E-11 at (  11,   1,  19)
       Min divergence: -0.32E-11 at (  15,   1,   3)
       Max VN number:   0.00E+00 at (  20,   1,  20)
 
       Time Step  112700   November  6, 2020  13:44:43
       Step Size:    0.289E-04 s, Total Time:       5.21 s
       Pressure Iterations:      7
       Maximum Velocity Error:  0.43E-02 on Mesh   1 at (  20   1   0)
       Maximum Pressure Error:  0.22E-06 on Mesh   1 at (   3   1   2)
       ---------------------------------------------------------------
       Max CFL number:  0.43E+00 at (  11,   1,   2)
       Max divergence:  0.31E-11 at (  18,   1,   1)
       Min divergence: -0.27E-11 at (   2,   1,   2)
       Max VN number:   0.00E+00 at (  20,   1,  20)
 
       Time Step  112800   November  6, 2020  13:44:44
       Step Size:    0.289E-04 s, Total Time:       5.21 s
       Pressure Iterations:      6
       Maximum Velocity Error:  0.47E-02 on Mesh   1 at (  12   1  21)
       Maximum Pressure Error:  0.16E-06 on Mesh   1 at (  15   1  20)
       ---------------------------------------------------------------
       Max CFL number:  0.48E+00 at (   4,   1,   8)
       Max divergence:  0.36E-11 at (  14,   1,  19)
       Min divergence: -0.36E-11 at (  20,   1,   9)
       Max VN number:   0.00E+00 at (  20,   1,  20)
 
       Time Step  112900   November  6, 2020  13:44:44
       Step Size:    0.277E-04 s, Total Time:       5.21 s
       Pressure Iterations:      6
       Maximum Velocity Error:  0.60E-02 on Mesh   1 at (   0   1   8)
       Maximum Pressure Error:  0.20E-06 on Mesh   1 at (  12   1  17)
       ---------------------------------------------------------------
       Max CFL number:  0.48E+00 at (  15,   1,  12)
       Max divergence:  0.36E-11 at (   5,   1,  16)
       Min divergence: -0.55E-11 at (  16,   1,  12)
       Max VN number:   0.00E+00 at (  20,   1,  20)
 
       Time Step  113000   November  6, 2020  13:44:45
       Step Size:    0.295E-04 s, Total Time:       5.22 s
       Pressure Iterations:      6
       Maximum Velocity Error:  0.72E-02 on Mesh   1 at (  20   1  21)
       Maximum Pressure Error:  0.14E-06 on Mesh   1 at (  10   1  15)
       ---------------------------------------------------------------
       Max CFL number:  0.47E+00 at (   1,   1,   6)
       Max divergence:  0.36E-11 at (  10,   1,  18)
       Min divergence: -0.27E-11 at (   9,   1,  18)
       Max VN number:   0.00E+00 at (  20,   1,  20)
 
       Time Step  113100   November  6, 2020  13:44:45
       Step Size:    0.256E-04 s, Total Time:       5.22 s
       Pressure Iterations:      5
       Maximum Velocity Error:  0.73E-02 on Mesh   1 at (  11   1   0)
       Maximum Pressure Error:  0.17E-06 on Mesh   1 at (  16   1   1)
       ---------------------------------------------------------------
       Max CFL number:  0.40E+00 at (  16,   1,   6)
       Max divergence:  0.41E-11 at (   5,   1,  19)
       Min divergence: -0.32E-11 at (  13,   1,  18)
       Max VN number:   0.00E+00 at (  20,   1,  20)
 
       Time Step  113200   November  6, 2020  13:44:45
       Step Size:    0.299E-04 s, Total Time:       5.22 s
       Pressure Iterations:      7
       Maximum Velocity Error:  0.61E-02 on Mesh   1 at (   9   1   0)
       Maximum Pressure Error:  0.20E-06 on Mesh   1 at (   8   1   9)
       ---------------------------------------------------------------
       Max CFL number:  0.46E+00 at (   9,   1,  10)
       Max divergence:  0.36E-11 at (  10,   1,  10)
       Min divergence: -0.36E-11 at (  16,   1,   9)
       Max VN number:   0.00E+00 at (  20,   1,  20)
 
       Time Step  113300   November  6, 2020  13:44:46
       Step Size:    0.289E-04 s, Total Time:       5.22 s
       Pressure Iterations:      6
       Maximum Velocity Error:  0.56E-02 on Mesh   1 at (   9   1   0)
       Maximum Pressure Error:  0.21E-06 on Mesh   1 at (  11   1  17)
       ---------------------------------------------------------------
       Max CFL number:  0.43E+00 at (   8,   1,   3)
       Max divergence:  0.36E-11 at (  17,   1,  13)
       Min divergence: -0.27E-11 at (  16,   1,   9)
       Max VN number:   0.00E+00 at (  20,   1,  20)
 
       Time Step  113400   November  6, 2020  13:44:46
       Step Size:    0.303E-04 s, Total Time:       5.23 s
       Pressure Iterations:      6
       Maximum Velocity Error:  0.58E-02 on Mesh   1 at (   0   1   8)
       Maximum Pressure Error:  0.18E-06 on Mesh   1 at (   9   1   8)
       ---------------------------------------------------------------
       Max CFL number:  0.44E+00 at (  15,   1,  12)
       Max divergence:  0.41E-11 at (   6,   1,  16)
       Min divergence: -0.45E-11 at (   6,   1,  15)
       Max VN number:   0.00E+00 at (  20,   1,  20)
 
       Time Step  113500   November  6, 2020  13:44:47
       Step Size:    0.262E-04 s, Total Time:       5.23 s
       Pressure Iterations:      7
       Maximum Velocity Error:  0.61E-02 on Mesh   1 at (  10   1   0)
       Maximum Pressure Error:  0.20E-06 on Mesh   1 at (   9   1   1)
       ---------------------------------------------------------------
       Max CFL number:  0.43E+00 at (   5,   1,   7)
       Max divergence:  0.27E-11 at (  10,   1,  10)
       Min divergence: -0.36E-11 at (  18,   1,   9)
       Max VN number:   0.00E+00 at (  20,   1,  20)
 
       Time Step  113600   November  6, 2020  13:44:47
       Step Size:    0.303E-04 s, Total Time:       5.23 s
       Pressure Iterations:      7
       Maximum Velocity Error:  0.66E-02 on Mesh   1 at (   0   1   9)
       Maximum Pressure Error:  0.29E-06 on Mesh   1 at (  20   1   9)
       ---------------------------------------------------------------
       Max CFL number:  0.44E+00 at (  18,   1,   7)
       Max divergence:  0.36E-11 at (   6,   1,  16)
       Min divergence: -0.45E-11 at (  16,   1,  20)
       Max VN number:   0.00E+00 at (  20,   1,  20)
 
