
 Fire Dynamics Simulator

 Current Date     : November 30, 2020  14:40:17
 Revision         : FDS6.7.5-0-g71f025606-release
 Revision Date    : Thu Aug 20 16:19:01 2020 -0400
 Compiler         : Intel ifort 19.1.1.216
 Compilation Date : Fri 08/21/2020  04:51 PM

 MPI Enabled;    Number of MPI Processes:       1
 OpenMP Enabled; Number of OpenMP Threads:      4

 MPI version: 3.1
 MPI library version: Intel(R) MPI Library 2019 Update 7 for Windows* OS


 Job TITLE        : 2D Vortex Simulation, Mesh Size = 80
 Job ID string    : vort3d_80


 Grid Dimensions, Mesh     1

   Cells in the X Direction            24
   Cells in the Y Direction            36
   Cells in the Z Direction            12
   Number of Grid Cells             10368


 Physical Dimensions, Mesh     1

   Length (m)                       6.000
   Width  (m)                       9.000
   Height (m)                       3.000
   Initial Time Step (s)            0.228

 Grid Dimensions, Mesh     2

   Cells in the X Direction            24
   Cells in the Y Direction            36
   Cells in the Z Direction            12
   Number of Grid Cells             10368


 Physical Dimensions, Mesh     2

   Length (m)                       6.000
   Width  (m)                       9.000
   Height (m)                       3.000
   Initial Time Step (s)            0.228

Total Number of Grid Cells         20736


 Miscellaneous Parameters

   Simulation Start Time (s)          0.0
   Simulation End Time (s)           50.0
   LES Calculation
   Eddy Viscosity:           Deardorff Model (C_DEARDORFF = 0.10)
   Near-wall Eddy Viscosity: Smagorinsky with Van Driest damping (C_SMAGORINSKY = 0.20)
   Turbulent Prandtl Number:         0.50
   Turbulent Schmidt Number:         0.50
   Ambient Temperature (C):         20.00


 Mass Fraction Transformation Matrix to Convert Species Mixtures (Columns) to Primitive Species (Rows)

                         AIR       REAC_FUE  PRODUCTS
   REAC_FUEL             0.000000  1.000000  0.000000
   NITROGEN              0.762470  0.000000  0.672568
   OXYGEN                0.230997  0.000000  0.000000
   CARBON DIOXIDE        0.000591  0.000000  0.242423
   CARBON MONOXIDE       0.000000  0.000000  0.000000
   WATER VAPOR           0.005941  0.000000  0.071286
   SOOT                  0.000000  0.000000  0.013724
   HYDROGEN              0.000000  0.000000  0.000000


 Primitive Species Information

   REAC_FUEL
   Gas Species
   Molecular Weight (g/mol)           130.42922
   Ambient Density (kg/m^3)            5.422
   Enthalpy of Formation (J/kg)       -3.21E+06

   NITROGEN
   Gas Species
   Molecular Weight (g/mol)            28.01340
   Ambient Density (kg/m^3)            1.165
   Enthalpy of Formation (J/kg)        0.00E+00

   OXYGEN
   Gas Species
   Molecular Weight (g/mol)            31.99880
   Ambient Density (kg/m^3)            1.330
   Enthalpy of Formation (J/kg)        0.00E+00

   CARBON DIOXIDE
   Gas Species
   Molecular Weight (g/mol)            44.00950
   Ambient Density (kg/m^3)            1.830
   Enthalpy of Formation (J/kg)       -8.94E+06

   CARBON MONOXIDE
   Gas Species
   Molecular Weight (g/mol)            28.01010
   Ambient Density (kg/m^3)            1.164
   Enthalpy of Formation (J/kg)       -3.95E+06

   WATER VAPOR
   Gas Species
   Molecular Weight (g/mol)            18.01528
   Ambient Density (kg/m^3)            0.749
   Enthalpy of Formation (J/kg)       -1.34E+07

   SOOT
   Gas Species
   Molecular Weight (g/mol)            10.91042
   Ambient Density (kg/m^3)            0.454
   Enthalpy of Formation (J/kg)        0.00E+00

   HYDROGEN
   Gas Species
   Molecular Weight (g/mol)             2.01588
   Ambient Density (kg/m^3)            0.084
   Enthalpy of Formation (J/kg)        0.00E+00


 Tracked (Lumped) Species Information

   AIR
   Molecular Weight (g/mol)            28.75199
   Ambient Density (kg/m^3)            1.195
   Initial Mass Fraction               1.000
   Enthalpy of Formation (J/kg)     -8.50E+04

   Sub Species                    Mass Fraction     Mole Fraction
   NITROGEN                       7.624701E-01      7.825730E-01
   OXYGEN                         2.309974E-01      2.075589E-01
   CARBON DIOXIDE                 5.914651E-04      3.864120E-04
   WATER VAPOR                    5.940984E-03      9.481679E-03
 
     Viscosity (kg/m/s) Ambient,  293 K:  1.80E-05
                                  500 K:  2.61E-05
                                 1000 K:  4.13E-05
                                 1500 K:  5.37E-05
   Therm. Cond. (W/m/K) Ambient,  293 K:  2.56E-02
                                  500 K:  3.81E-02
                                 1000 K:  6.69E-02
                                 1500 K:  9.25E-02
        Enthalpy (J/kg) Ambient,  293 K: -9.01E+04
                                  500 K:  1.22E+05
                                 1000 K:  6.72E+05
                                 1500 K:  1.27E+06
    Spec. Heat (J/kg/K) Ambient,  293 K:  1.02E+03
                                  500 K:  1.04E+03
                                 1000 K:  1.16E+03
                                 1500 K:  1.23E+03
   Diff. Coeff. (m^2/s) Ambient,  293 K:  1.99E-05
                                  500 K:  4.96E-05
                                 1000 K:  1.58E-04
                                 1500 K:  3.09E-04

   REAC_FUEL
   Molecular Weight (g/mol)           130.42922
   Ambient Density (kg/m^3)            5.422
   Initial Mass Fraction               0.000
   Enthalpy of Formation (J/kg)     -3.21E+06

   Sub Species                    Mass Fraction     Mole Fraction
   REAC_FUEL                      1.000000E+00      1.000000E+00
 
     Viscosity (kg/m/s) Ambient,  293 K:  3.75E-05
                                  500 K:  5.42E-05
                                 1000 K:  8.52E-05
                                 1500 K:  1.11E-04
   Therm. Cond. (W/m/K) Ambient,  293 K:  1.18E-02
                                  500 K:  1.70E-02
                                 1000 K:  2.68E-02
                                 1500 K:  3.48E-02
        Enthalpy (J/kg) Ambient,  293 K: -3.21E+06
                                  500 K: -3.16E+06
                                 1000 K: -3.05E+06
                                 1500 K: -2.94E+06
    Spec. Heat (J/kg/K) Ambient,  293 K:  2.23E+02
                                  500 K:  2.23E+02
                                 1000 K:  2.23E+02
                                 1500 K:  2.23E+02
   Diff. Coeff. (m^2/s) Ambient,  293 K:  1.55E-05
                                  500 K:  3.85E-05
                                 1000 K:  1.22E-04
                                 1500 K:  2.39E-04

   PRODUCTS
   Molecular Weight (g/mol)            28.79187
   Ambient Density (kg/m^3)            1.197
   Initial Mass Fraction               0.000
   Enthalpy of Formation (J/kg)     -3.12E+06

   Sub Species                    Mass Fraction     Mole Fraction
   NITROGEN                       6.725678E-01      6.912579E-01
   CARBON DIOXIDE                 2.424227E-01      1.585976E-01
   CARBON MONOXIDE                0.000000E+00      0.000000E+00
   WATER VAPOR                    7.128568E-02      1.139282E-01
   SOOT                           1.372385E-02      3.621630E-02
 
     Viscosity (kg/m/s) Ambient,  293 K:  1.61E-05
                                  500 K:  2.39E-05
                                 1000 K:  3.88E-05
                                 1500 K:  5.10E-05
   Therm. Cond. (W/m/K) Ambient,  293 K:  2.29E-02
                                  500 K:  3.60E-02
                                 1000 K:  6.69E-02
                                 1500 K:  9.53E-02
        Enthalpy (J/kg) Ambient,  293 K: -3.13E+06
                                  500 K: -2.91E+06
                                 1000 K: -2.31E+06
                                 1500 K: -1.65E+06
    Spec. Heat (J/kg/K) Ambient,  293 K:  1.04E+03
                                  500 K:  1.11E+03
                                 1000 K:  1.27E+03
                                 1500 K:  1.37E+03
   Diff. Coeff. (m^2/s) Ambient,  293 K:  1.95E-05
                                  500 K:  4.92E-05
                                 1000 K:  1.58E-04
                                 1500 K:  3.11E-04


 Gas Phase Reaction Information

   NFPA Babrauskas

   Reaction ID:  POLYURETHANE

   Fuel                                           Heat of Combustion (kJ/kg)
   REAC_FUEL                                                      19023.6298

   Stoichiometry

   Primitive Species Stoich. Coeff.
   Species ID                                                          Molar
   REAC_FUEL                                                       -1.000000
   NITROGEN                                                         0.500000
   OXYGEN                                                          -5.919204
   CARBON DIOXIDE                                                   5.224090
   WATER VAPOR                                                      3.490227
   SOOT                                                             1.195455

   Tracked (Lumped) Species Stoich. Coeff.
   Species ID                                             Molar         Mass
   AIR                                               -28.518190    -6.286587
   REAC_FUEL                                          -1.000000    -1.000000
   PRODUCTS                                           33.008758     7.286587

   Reaction Kinetics

   Arrhenius Parameters
   Pre-exponential:    Infinite
   Activation Energy:  N/A

   ODE Solver:  EXPLICIT EULER
   Extinction Model:  EXTINCTION 2
   Auto-Ignition Temperature (K):       0.0
   Critical Flame Temperature (K):   1700.2


 Material Information


 Surface Conditions

   0 INERT (DEFAULT)

   1 FIRE
     HRR Per Unit Area (kW/m2)         50.0
     REAC_FUEL Mass Flux (kg/s/m2)   2.63E-03

   2 OPEN
     Passive Vent to Atmosphere

   3 MIRROR
     Symmetry Plane

   4 INTERPOLATED

   5 PERIODIC

   6 HVAC

   7 MASSLESS TRACER

   8 DROPLET

   9 EVACUATION_OUTFLOW
     Normal Velocity (m/s)         0.000

  10 MASSLESS TARGET

  11 PERIODIC FLOW ONLY


 PLOT3D Information

   Sampling Interval (s)              10.0

   1 Quantity: TEMPERATURE
   2 Quantity: U-VELOCITY
   3 Quantity: V-VELOCITY
   4 Quantity: W-VELOCITY
   5 Quantity: HRRPUV


 Radiation Model Information

   Number of control angles  104
   Time step increment         3
   Angle increment             5
   Theta band N_phi   Solid angle
     1:        4     0.120
     2:       12     0.114
     3:       16     0.127
     4:       20     0.120
     5:       20     0.120
     6:       16     0.127
     7:       12     0.114
     8:        4     0.120
   Using gray gas absorption.
   Mean beam length  0.100 m
 
 

 Run Time Diagnostics

       Time Step       1   November 30, 2020  14:40:18
       Step Size:    0.228E+00 s, Total Time:       0.23 s
       Pressure Iterations:      1
       Maximum Velocity Error:  0.39E-02 on Mesh   1 at (  22  22  13)
       Maximum Pressure Error:  0.11E-01 on Mesh   2 at (  19  30   1)
       ---------------------------------------------------------------
       Mesh    1
       Max CFL number:  0.17E-01 at (   7,  27,   4)
       Max divergence:  0.13E-05 at (  10,  30,   7)
       Min divergence: -0.11E-05 at (   7,  15,   7)
       Max VN number:   0.11E-01 at (  20,  16,   7)
       Mesh    2
       Max CFL number:  0.17E-01 at (  14,  30,   7)
       Max divergence:  0.11E-05 at (  12,   9,   9)
       Min divergence: -0.78E-03 at (  20,  29,   1)
       Max VN number:   0.12E-01 at (   5,  31,   6)
 
       Time Step       2   November 30, 2020  14:40:18
       Step Size:    0.228E+00 s, Total Time:       0.46 s
       Pressure Iterations:      1
       Maximum Velocity Error:  0.30E-02 on Mesh   2 at (  21  28   1)
       Maximum Pressure Error:  0.67E+00 on Mesh   2 at (  19  29   1)
       ---------------------------------------------------------------
       Mesh    1
       Max CFL number:  0.17E-01 at (   7,  27,   4)
       Max divergence:  0.13E-05 at (  10,  30,   7)
       Min divergence: -0.11E-05 at (   7,  15,   7)
       Max VN number:   0.11E-01 at (  20,  16,   7)
       Mesh    2
       Max CFL number:  0.17E-01 at (  17,  23,   3)
       Max divergence:  0.12E+00 at (  19,  29,   1)
       Min divergence: -0.11E-05 at (   4,  20,   6)
       Max VN number:   0.12E-01 at (   5,  31,   6)
       Total Heat Release Rate:              2.619 kW
 
       Time Step       3   November 30, 2020  14:40:18
       Step Size:    0.228E+00 s, Total Time:       0.68 s
       Pressure Iterations:      1
       Maximum Velocity Error:  0.22E-02 on Mesh   1 at (  22  22  13)
       Maximum Pressure Error:  0.41E+00 on Mesh   2 at (  20  29   1)
       ---------------------------------------------------------------
       Mesh    1
       Max CFL number:  0.17E-01 at (   7,  27,   4)
       Max divergence:  0.13E-05 at (  10,  30,   7)
       Min divergence: -0.11E-05 at (   7,  15,   7)
       Max VN number:   0.11E-01 at (  20,  16,   7)
       Mesh    2
       Max CFL number:  0.41E-01 at (  20,  30,   1)
       Max divergence:  0.20E+00 at (  19,  30,   1)
       Min divergence: -0.11E-05 at (   4,  20,   6)
       Max VN number:   0.12E-01 at (   7,  30,   4)
       Total Heat Release Rate:              5.034 kW
       Radiation Loss to Boundaries:        -0.604 kW
 
       Time Step       4   November 30, 2020  14:40:18
       Step Size:    0.228E+00 s, Total Time:       0.91 s
       Pressure Iterations:      1
       Maximum Velocity Error:  0.32E-02 on Mesh   2 at (  21  28   1)
       Maximum Pressure Error:  0.53E-01 on Mesh   2 at (  19  29   1)
       ---------------------------------------------------------------
       Mesh    1
       Max CFL number:  0.17E-01 at (   7,  27,   4)
       Max divergence:  0.13E-05 at (  10,  30,   7)
       Min divergence: -0.10E-05 at (   7,  15,   7)
       Max VN number:   0.11E-01 at (  20,  16,   7)
       Mesh    2
       Max CFL number:  0.80E-01 at (  20,  29,   1)
       Max divergence:  0.23E+00 at (  19,  29,   1)
       Min divergence: -0.11E-05 at (  14,   9,   3)
       Max VN number:   0.12E-01 at (   7,  30,   4)
       Total Heat Release Rate:              7.058 kW
       Radiation Loss to Boundaries:        -1.586 kW
 
       Time Step       5   November 30, 2020  14:40:18
       Step Size:    0.228E+00 s, Total Time:       1.14 s
       Pressure Iterations:      1
       Maximum Velocity Error:  0.39E-02 on Mesh   2 at (  21  28   1)
       Maximum Pressure Error:  0.38E+00 on Mesh   2 at (  20  29   1)
       ---------------------------------------------------------------
       Mesh    1
       Max CFL number:  0.17E-01 at (   7,  27,   4)
       Max divergence:  0.13E-05 at (  10,  30,   7)
       Min divergence: -0.10E-05 at (   7,  15,   7)
       Max VN number:   0.11E-01 at (  10,  30,   7)
       Mesh    2
       Max CFL number:  0.13E+00 at (  20,  29,   1)
       Max divergence:  0.23E+00 at (  19,  29,   1)
       Min divergence: -0.11E-05 at (  14,   9,   3)
       Max VN number:   0.19E-01 at (  19,  29,   2)
       Total Heat Release Rate:              8.677 kW
       Radiation Loss to Boundaries:        -3.016 kW
 
       Time Step       6   November 30, 2020  14:40:18
       Step Size:    0.228E+00 s, Total Time:       1.37 s
       Pressure Iterations:      1
       Maximum Velocity Error:  0.42E-02 on Mesh   2 at (  21  28   1)
       Maximum Pressure Error:  0.52E+00 on Mesh   2 at (  20  30   1)
       ---------------------------------------------------------------
       Mesh    1
       Max CFL number:  0.17E-01 at (   7,  27,   4)
       Max divergence:  0.13E-05 at (  10,  30,   7)
       Min divergence: -0.10E-05 at (   7,  15,   7)
       Max VN number:   0.11E-01 at (  10,  30,   7)
       Mesh    2
       Max CFL number:  0.22E+00 at (  20,  29,   1)
       Max divergence:  0.23E+00 at (  19,  29,   1)
       Min divergence: -0.11E-05 at (  14,   9,   3)
       Max VN number:   0.38E-01 at (  19,  29,   2)
       Total Heat Release Rate:              9.855 kW
       Radiation Loss to Boundaries:        -4.575 kW
 
       Time Step       7   November 30, 2020  14:40:18
       Step Size:    0.228E+00 s, Total Time:       1.60 s
       Pressure Iterations:      1
       Maximum Velocity Error:  0.32E-02 on Mesh   2 at (  20  26   1)
       Maximum Pressure Error:  0.86E-01 on Mesh   2 at (  20  29   1)
       ---------------------------------------------------------------
       Mesh    1
       Max CFL number:  0.17E-01 at (   7,  27,   4)
       Max divergence:  0.13E-05 at (  10,  30,   7)
       Min divergence: -0.10E-05 at (   7,  15,   7)
       Max VN number:   0.11E-01 at (  10,  30,   7)
       Mesh    2
       Max CFL number:  0.32E+00 at (  20,  29,   1)
       Max divergence:  0.24E+00 at (  20,  29,   1)
       Min divergence: -0.33E-02 at (  19,  30,   2)
       Max VN number:   0.71E-01 at (  19,  29,   2)
       Total Heat Release Rate:             10.737 kW
       Radiation Loss to Boundaries:        -4.808 kW
 
       Time Step       8   November 30, 2020  14:40:19
       Step Size:    0.228E+00 s, Total Time:       1.83 s
       Pressure Iterations:      1
       Maximum Velocity Error:  0.34E-02 on Mesh   2 at (  21  28   3)
       Maximum Pressure Error:  0.18E+00 on Mesh   2 at (  19  30   1)
       ---------------------------------------------------------------
       Mesh    1
       Max CFL number:  0.17E-01 at (   7,  27,   4)
       Max divergence:  0.13E-05 at (  10,  30,   7)
       Min divergence: -0.10E-05 at (   7,  15,   7)
       Max VN number:   0.11E-01 at (  10,  30,   7)
       Mesh    2
       Max CFL number:  0.45E+00 at (  19,  29,   1)
       Max divergence:  0.26E+00 at (  20,  29,   1)
       Min divergence: -0.12E-01 at (  19,  29,   2)
       Max VN number:   0.13E+00 at (  19,  30,   1)
       Total Heat Release Rate:             11.344 kW
       Radiation Loss to Boundaries:        -4.268 kW
 
       Time Step       9   November 30, 2020  14:40:19
       Step Size:    0.228E+00 s, Total Time:       2.05 s
       Pressure Iterations:      1
       Maximum Velocity Error:  0.67E-02 on Mesh   2 at (  21  28   2)
       Maximum Pressure Error:  0.33E+00 on Mesh   2 at (  20  30   1)
       ---------------------------------------------------------------
       Mesh    1
       Max CFL number:  0.17E-01 at (   7,  27,   4)
       Max divergence:  0.13E-05 at (  10,  30,   7)
       Min divergence: -0.10E-05 at (   7,  15,   7)
       Max VN number:   0.11E-01 at (  10,  30,   7)
       Mesh    2
       Max CFL number:  0.59E+00 at (  20,  29,   1)
       Max divergence:  0.27E+00 at (  20,  29,   1)
       Min divergence: -0.24E-01 at (  20,  30,   2)
       Max VN number:   0.25E+00 at (  19,  30,   1)
       Total Heat Release Rate:             11.750 kW
       Radiation Loss to Boundaries:        -3.602 kW
 
       Time Step      10   November 30, 2020  14:40:19
       Step Size:    0.228E+00 s, Total Time:       2.28 s
       Pressure Iterations:      1
       Maximum Velocity Error:  0.11E-01 on Mesh   2 at (  21  28   2)
       Maximum Pressure Error:  0.37E+00 on Mesh   2 at (  20  30   1)
       ---------------------------------------------------------------
       Mesh    1
       Max CFL number:  0.17E-01 at (   7,  27,   4)
       Max divergence:  0.13E-05 at (  10,  30,   7)
       Min divergence: -0.10E-05 at (   7,  15,   7)
       Max VN number:   0.11E-01 at (  10,  30,   7)
       Mesh    2
       Max CFL number:  0.70E+00 at (  20,  29,   1)
       Max divergence:  0.26E+00 at (  20,  29,   1)
       Min divergence: -0.89E-02 at (  20,  30,   2)
       Max VN number:   0.38E+00 at (  19,  30,   1)
       Total Heat Release Rate:             12.017 kW
       Radiation Loss to Boundaries:        -2.986 kW
 
       Time Step      20   November 30, 2020  14:40:21
       Step Size:    0.125E+00 s, Total Time:       3.96 s
       Pressure Iterations:      1
       Maximum Velocity Error:  0.17E-01 on Mesh   2 at (  21  28   6)
       Maximum Pressure Error:  0.48E+00 on Mesh   2 at (  20  29   7)
       ---------------------------------------------------------------
       Mesh    1
       Max CFL number:  0.94E-02 at (   7,  27,   4)
       Max divergence:  0.13E-05 at (  10,  30,   7)
       Min divergence: -0.10E-05 at (   7,  15,   6)
       Max VN number:   0.59E-02 at (  10,  30,   7)
       Mesh    2
       Max CFL number:  0.89E+00 at (  20,  29,   6)
       Max divergence:  0.27E+00 at (  19,  29,   1)
       Min divergence: -0.45E-01 at (  20,  29,   3)
       Max VN number:   0.30E+00 at (  20,  29,   6)
       Total Heat Release Rate:             12.896 kW
       Radiation Loss to Boundaries:        -3.464 kW
 
       Time Step      30   November 30, 2020  14:40:23
       Step Size:    0.125E+00 s, Total Time:       5.21 s
       Pressure Iterations:      1
       Maximum Velocity Error:  0.32E-01 on Mesh   2 at (  21  30   9)
       Maximum Pressure Error:  0.58E+00 on Mesh   2 at (  20  28  10)
       ---------------------------------------------------------------
       Mesh    1
       Max CFL number:  0.96E-02 at (  23,  24,   8)
       Max divergence:  0.13E-05 at (  10,  30,   7)
       Min divergence: -0.11E-05 at (   7,  15,   6)
       Max VN number:   0.58E-02 at (   9,  18,   7)
       Mesh    2
       Max CFL number:  0.87E+00 at (  20,  29,   6)
       Max divergence:  0.26E+00 at (  20,  30,   1)
       Min divergence: -0.51E-01 at (  20,  29,   3)
       Max VN number:   0.64E+00 at (  19,  30,  10)
       Total Heat Release Rate:             12.500 kW
       Radiation Loss to Boundaries:        -3.361 kW
 
       Time Step      40   November 30, 2020  14:40:25
       Step Size:    0.138E+00 s, Total Time:       6.51 s
       Pressure Iterations:      1
       Maximum Velocity Error:  0.40E-01 on Mesh   2 at (  14  27  11)
       Maximum Pressure Error:  0.10E+01 on Mesh   2 at (  15  27  10)
       ---------------------------------------------------------------
       Mesh    1
       Max CFL number:  0.13E-01 at (  14,  25,   7)
       Max divergence:  0.13E-05 at (  10,  30,   7)
       Min divergence: -0.10E-05 at (   7,  15,   6)
       Max VN number:   0.64E-02 at (   9,  18,   7)
       Radiation Loss to Boundaries:         0.002 kW
       Mesh    2
       Max CFL number:  0.86E+00 at (  20,  29,   6)
       Max divergence:  0.29E+00 at (  20,  29,   1)
       Min divergence: -0.83E-01 at (  20,  29,   3)
       Max VN number:   0.58E+00 at (  19,  28,  10)
       Total Heat Release Rate:             12.450 kW
       Radiation Loss to Boundaries:        -3.295 kW
 
       Time Step      50   November 30, 2020  14:40:27
       Step Size:    0.123E+00 s, Total Time:       7.84 s
       Pressure Iterations:      1
       Maximum Velocity Error:  0.49E-01 on Mesh   2 at (  13  26   9)
       Maximum Pressure Error:  0.71E+00 on Mesh   2 at (  20  29   1)
       ---------------------------------------------------------------
       Mesh    1
       Max CFL number:  0.21E-01 at (  11,  25,   7)
       Max divergence:  0.13E-05 at (  10,  30,   7)
       Min divergence: -0.13E-05 at (  11,  24,   8)
       Max VN number:   0.72E-02 at (  11,  24,   8)
       Radiation Loss to Boundaries:         0.002 kW
       Mesh    2
       Max CFL number:  0.86E+00 at (  11,  27,   9)
       Max divergence:  0.31E+00 at (  20,  29,   1)
       Min divergence: -0.89E-01 at (  20,  29,   4)
       Max VN number:   0.47E+00 at (  20,  29,  10)
       Total Heat Release Rate:             12.619 kW
       Radiation Loss to Boundaries:        -3.499 kW
 
       Time Step      60   November 30, 2020  14:40:28
       Step Size:    0.123E+00 s, Total Time:       9.07 s
       Pressure Iterations:      1
       Maximum Velocity Error:  0.23E-01 on Mesh   2 at (  13  26   9)
       Maximum Pressure Error:  0.87E+00 on Mesh   2 at (  20  29   1)
       ---------------------------------------------------------------
       Mesh    1
       Max CFL number:  0.28E-01 at (  11,  25,   7)
       Max divergence:  0.16E-05 at (   2,  31,   9)
       Min divergence: -0.18E-05 at (  12,  24,   9)
       Max VN number:   0.97E-02 at (  11,  27,   8)
       Radiation Loss to Boundaries:         0.002 kW
       Mesh    2
       Max CFL number:  0.85E+00 at (  20,  29,   6)
       Max divergence:  0.29E+00 at (  20,  30,   1)
       Min divergence: -0.17E+00 at (  20,  29,   2)
       Max VN number:   0.55E+00 at (  20,  29,  10)
       Total Heat Release Rate:             12.501 kW
       Radiation Loss to Boundaries:        -3.628 kW
 
       Time Step      70   November 30, 2020  14:40:30
       Step Size:    0.123E+00 s, Total Time:      10.31 s
       Pressure Iterations:      1
       Maximum Velocity Error:  0.14E-01 on Mesh   2 at (   9  26   9)
       Maximum Pressure Error:  0.25E+00 on Mesh   2 at (  20  29   1)
       ---------------------------------------------------------------
       Mesh    1
       Max CFL number:  0.33E-01 at (   5,  30,   8)
       Max divergence:  0.19E-05 at (   2,  31,   9)
       Min divergence: -0.22E-05 at (   5,  30,   8)
       Max VN number:   0.11E-01 at (  11,  27,   8)
       Radiation Loss to Boundaries:         0.002 kW
       Mesh    2
       Max CFL number:  0.82E+00 at (  20,  29,   6)
       Max divergence:  0.29E+00 at (  20,  30,   1)
       Min divergence: -0.13E+00 at (  20,  29,   2)
       Max VN number:   0.56E+00 at (  20,  29,  10)
       Total Heat Release Rate:             12.497 kW
       Radiation Loss to Boundaries:        -3.459 kW
 
       Time Step      80   November 30, 2020  14:40:32
       Step Size:    0.136E+00 s, Total Time:      11.57 s
       Pressure Iterations:      1
       Maximum Velocity Error:  0.49E-01 on Mesh   2 at (  21  29   9)
       Maximum Pressure Error:  0.60E+00 on Mesh   2 at (  21  29   7)
       ---------------------------------------------------------------
       Mesh    1
       Max CFL number:  0.37E-01 at (  11,  26,   2)
       Max divergence:  0.18E-05 at (   2,  31,   9)
       Min divergence: -0.24E-05 at (   5,  30,   8)
       Max VN number:   0.14E-01 at (  11,  27,   8)
       Radiation Loss to Boundaries:         0.002 kW
       Mesh    2
       Max CFL number:  0.90E+00 at (  21,  29,   6)
       Max divergence:  0.28E+00 at (  20,  30,   1)
       Min divergence: -0.11E+00 at (  20,  29,   2)
       Max VN number:   0.64E+00 at (  21,  29,   8)
       Total Heat Release Rate:             12.333 kW
       Radiation Loss to Boundaries:        -3.542 kW
 
       Time Step      90   November 30, 2020  14:40:34
       Step Size:    0.149E+00 s, Total Time:      12.97 s
       Pressure Iterations:      1
       Maximum Velocity Error:  0.13E-01 on Mesh   2 at (  20  30  11)
       Maximum Pressure Error:  0.21E+00 on Mesh   2 at (  20  29   1)
       ---------------------------------------------------------------
       Mesh    1
       Max CFL number:  0.37E-01 at (  11,  26,   2)
       Max divergence:  0.15E-05 at (   2,  31,   9)
       Min divergence: -0.23E-05 at (   5,  30,   8)
       Max VN number:   0.14E-01 at (  11,  27,   8)
       Radiation Loss to Boundaries:         0.002 kW
       Mesh    2
       Max CFL number:  0.87E+00 at (  20,  29,   8)
       Max divergence:  0.27E+00 at (  20,  30,   1)
       Min divergence: -0.11E+00 at (  20,  29,   2)
       Max VN number:   0.69E+00 at (  21,  29,   8)
       Total Heat Release Rate:             12.410 kW
       Radiation Loss to Boundaries:        -3.461 kW
 
       Time Step     100   November 30, 2020  14:40:36
       Step Size:    0.149E+00 s, Total Time:      14.46 s
       Pressure Iterations:      1
       Maximum Velocity Error:  0.91E-02 on Mesh   2 at (  21  30   9)
       Maximum Pressure Error:  0.71E-01 on Mesh   2 at (   3  32  10)
       ---------------------------------------------------------------
       Mesh    1
       Max CFL number:  0.29E-01 at (  11,  26,   2)
       Max divergence:  0.12E-05 at (  10,  30,   7)
       Min divergence: -0.19E-05 at (   5,  30,   8)
       Max VN number:   0.12E-01 at (  11,  27,   8)
       Radiation Loss to Boundaries:         0.002 kW
       Mesh    2
       Max CFL number:  0.87E+00 at (  21,  29,   5)
       Max divergence:  0.27E+00 at (  20,  30,   1)
       Min divergence: -0.82E-01 at (  20,  29,   2)
       Max VN number:   0.73E+00 at (  21,  29,   8)
       Total Heat Release Rate:             12.497 kW
       Radiation Loss to Boundaries:        -3.459 kW
 
       Time Step     200   November 30, 2020  14:40:55
       Step Size:    0.149E+00 s, Total Time:      29.40 s
       Pressure Iterations:      1
       Maximum Velocity Error:  0.11E-01 on Mesh   2 at (  21  28  10)
       Maximum Pressure Error:  0.26E+00 on Mesh   2 at (  20  28  10)
       ---------------------------------------------------------------
       Mesh    1
       Max CFL number:  0.17E-01 at (  11,  28,   2)
       Max divergence:  0.91E-06 at (  19,  23,   5)
       Min divergence: -0.12E-05 at (  12,  24,   8)
       Max VN number:   0.91E-02 at (  13,  24,   6)
       Radiation Loss to Boundaries:         0.002 kW
       Mesh    2
       Max CFL number:  0.92E+00 at (  20,  29,   6)
       Max divergence:  0.26E+00 at (  19,  29,   1)
       Min divergence: -0.73E-01 at (  20,  29,   2)
       Max VN number:   0.69E+00 at (  21,  29,   8)
       Total Heat Release Rate:             12.500 kW
       Radiation Loss to Boundaries:        -3.732 kW
 
       Time Step     300   November 30, 2020  14:41:13
       Step Size:    0.142E+00 s, Total Time:      44.21 s
       Pressure Iterations:      1
       Maximum Velocity Error:  0.21E-01 on Mesh   2 at (  18  30  11)
       Maximum Pressure Error:  0.18E+00 on Mesh   2 at (  19  29   1)
       ---------------------------------------------------------------
       Mesh    1
       Max CFL number:  0.20E+00 at (  22,  21,  10)
       Max divergence:  0.19E-03 at (  24,  24,   9)
       Min divergence: -0.37E-03 at (  24,  24,  10)
       Max VN number:   0.58E-01 at (  21,  21,  10)
       Mesh    2
       Max CFL number:  0.89E+00 at (  19,  29,   7)
       Max divergence:  0.29E+00 at (  19,  30,   1)
       Min divergence: -0.14E+00 at (  19,  29,   2)
       Max VN number:   0.52E+00 at (  18,  30,  10)
       Total Heat Release Rate:             12.512 kW
       Radiation Loss to Boundaries:        -3.803 kW
 
       Time Step     340   November 30, 2020  14:41:21
       Step Size:    0.114E+00 s, Total Time:      50.00 s
       Pressure Iterations:      1
       Maximum Velocity Error:  0.17E-01 on Mesh   2 at (  18  28  11)
       Maximum Pressure Error:  0.32E+00 on Mesh   2 at (  19  30   1)
       ---------------------------------------------------------------
       Mesh    1
       Max CFL number:  0.16E+00 at (  19,  18,  10)
       Max divergence:  0.23E-03 at (  17,  18,  10)
       Min divergence: -0.44E-03 at (  18,  19,  10)
       Max VN number:   0.49E-01 at (  18,  18,  10)
       Radiation Loss to Boundaries:        -0.006 kW
       Mesh    2
       Max CFL number:  0.65E+00 at (  18,  29,   8)
       Max divergence:  0.28E+00 at (  19,  29,   1)
       Min divergence: -0.25E-01 at (  19,  30,   3)
       Max VN number:   0.46E+00 at (  18,  28,  10)
       Total Heat Release Rate:             13.542 kW
       Radiation Loss to Boundaries:        -4.116 kW
 


 Time Stepping Wall Clock Time (s):       63.850
 Total Elapsed Wall Clock Time (s):       66.654

STOP: FDS completed successfully (CHID: vort3d_80)
