
 Fire Dynamics Simulator

 Current Date     : January 18, 2021  17:49:39
 Revision         : FDS6.7.5-0-g71f025606-release
 Revision Date    : Thu Aug 20 16:19:01 2020 -0400
 Compiler         : Intel ifort 19.1.1.216
 Compilation Date : Fri 08/21/2020  04:51 PM

 MPI Enabled;    Number of MPI Processes:       1
 OpenMP Enabled; Number of OpenMP Threads:      4

 MPI version: 3.1
 MPI library version: Intel(R) MPI Library 2019 Update 7 for Windows* OS


 Job TITLE        : 
 Job ID string    : wall_test


 Grid Dimensions, Mesh     1

   Cells in the X Direction            20
   Cells in the Y Direction            16
   Cells in the Z Direction            72
   Number of Grid Cells             23040


 Physical Dimensions, Mesh     1

   Length (m)                       2.500
   Width  (m)                       4.800
   Height (m)                       3.600
   Initial Time Step (s)            0.103

 Grid Dimensions, Mesh     2

   Cells in the X Direction            20
   Cells in the Y Direction            16
   Cells in the Z Direction            72
   Number of Grid Cells             23040


 Physical Dimensions, Mesh     2

   Length (m)                       5.500
   Width  (m)                       4.800
   Height (m)                       3.600
   Initial Time Step (s)            0.103

Total Number of Grid Cells         46080


 Miscellaneous Parameters

   Simulation Start Time (s)          0.0
   Simulation End Time (s)            0.1
   LES Calculation
   Eddy Viscosity:           Deardorff Model (C_DEARDORFF = 0.10)
   Near-wall Eddy Viscosity: Smagorinsky with Van Driest damping (C_SMAGORINSKY = 0.20)
   Turbulent Prandtl Number:         0.50
   Turbulent Schmidt Number:         0.50
   Ambient Temperature (C):         20.00


 Mass Fraction Transformation Matrix to Convert Species Mixtures (Columns) to Primitive Species (Rows)

                         AIR       PUR       PRODUCTS
   PUR                   0.000000  1.000000  0.000000
   OXYGEN                0.233008  0.000000  0.000000
   HCN                   0.000000  0.000000  0.001606
   AMMONIA               0.000000  0.000000  0.002370
   CARBON MONOXIDE       0.000000  0.000000  0.076477
   CARBON DIOXIDE        0.000000  0.000000  0.147404
   WATER VAPOR           0.000000  0.000000  0.100453
   NITROGEN              0.766992  0.000000  0.656066
   SOOT                  0.000000  0.000000  0.008870
   BENZENE               0.000000  0.000000  0.002723
   BENZONITRILE          0.000000  0.000000  0.001309
   BIPHENYL              0.000000  0.000000  0.000079
   INDENE                0.000000  0.000000  0.000190
   ISOQUINOLINE          0.000000  0.000000  0.000381
   NAPHTHALENE           0.000000  0.000000  0.001046
   NAPHTHALENE-1-CARBON  0.000000  0.000000  0.000233
   STYRENE               0.000000  0.000000  0.000362
   TOLUENE               0.000000  0.000000  0.000411
   XYLENE                0.000000  0.000000  0.000020


 Primitive Species Information

   PUR
   Gas Species
   Molecular Weight (g/mol)            99.99998
   Ambient Density (kg/m^3)            4.157
   Enthalpy of Formation (J/kg)        0.00E+00

   OXYGEN
   Gas Species
   Molecular Weight (g/mol)            31.99880
   Ambient Density (kg/m^3)            1.330
   Enthalpy of Formation (J/kg)        0.00E+00

   HCN
   Gas Species
   Molecular Weight (g/mol)            27.02534
   Ambient Density (kg/m^3)            1.123
   Enthalpy of Formation (J/kg)        0.00E+00

   AMMONIA
   Gas Species
   Molecular Weight (g/mol)            17.03052
   Ambient Density (kg/m^3)            0.708
   Enthalpy of Formation (J/kg)       -2.70E+06

   CARBON MONOXIDE
   Gas Species
   Molecular Weight (g/mol)            28.01010
   Ambient Density (kg/m^3)            1.164
   Enthalpy of Formation (J/kg)       -3.95E+06

   CARBON DIOXIDE
   Gas Species
   Molecular Weight (g/mol)            44.00950
   Ambient Density (kg/m^3)            1.830
   Enthalpy of Formation (J/kg)       -8.94E+06

   WATER VAPOR
   Gas Species
   Molecular Weight (g/mol)            18.01528
   Ambient Density (kg/m^3)            0.749
   Enthalpy of Formation (J/kg)       -1.34E+07

   NITROGEN
   Gas Species
   Molecular Weight (g/mol)            28.01340
   Ambient Density (kg/m^3)            1.165
   Enthalpy of Formation (J/kg)        0.00E+00

   SOOT
   Gas Species
   Molecular Weight (g/mol)            12.01070
   Ambient Density (kg/m^3)            0.499
   Enthalpy of Formation (J/kg)        0.00E+00

   BENZENE
   Gas Species
   Molecular Weight (g/mol)            78.11184
   Ambient Density (kg/m^3)            3.247
   Enthalpy of Formation (J/kg)        1.06E+06

   BENZONITRILE
   Gas Species
   Molecular Weight (g/mol)           103.12130
   Ambient Density (kg/m^3)            4.287
   Enthalpy of Formation (J/kg)        0.00E+00

   BIPHENYL
   Gas Species
   Molecular Weight (g/mol)           154.20780
   Ambient Density (kg/m^3)            6.411
   Enthalpy of Formation (J/kg)        0.00E+00

   INDENE
   Gas Species
   Molecular Weight (g/mol)           116.15982
   Ambient Density (kg/m^3)            4.829
   Enthalpy of Formation (J/kg)        0.00E+00

   ISOQUINOLINE
   Gas Species
   Molecular Weight (g/mol)           129.15858
   Ambient Density (kg/m^3)            5.369
   Enthalpy of Formation (J/kg)        0.00E+00

   NAPHTHALENE
   Gas Species
   Molecular Weight (g/mol)           128.17052
   Ambient Density (kg/m^3)            5.328
   Enthalpy of Formation (J/kg)        0.00E+00

   NAPHTHALENE-1-CARBONITRILE
   Gas Species
   Molecular Weight (g/mol)           153.17998
   Ambient Density (kg/m^3)            6.368
   Enthalpy of Formation (J/kg)        0.00E+00

   STYRENE
   Gas Species
   Molecular Weight (g/mol)           104.14912
   Ambient Density (kg/m^3)            4.330
   Enthalpy of Formation (J/kg)        0.00E+00

   TOLUENE
   Gas Species
   Molecular Weight (g/mol)            92.13842
   Ambient Density (kg/m^3)            3.830
   Enthalpy of Formation (J/kg)        5.45E+05

   XYLENE
   Gas Species
   Molecular Weight (g/mol)           106.16500
   Ambient Density (kg/m^3)            4.413
   Enthalpy of Formation (J/kg)        0.00E+00


 Tracked (Lumped) Species Information

   AIR
   Molecular Weight (g/mol)            28.85067
   Ambient Density (kg/m^3)            1.199
   Initial Mass Fraction               1.000
   Enthalpy of Formation (J/kg)      0.00E+00

   Sub Species                    Mass Fraction     Mole Fraction
   OXYGEN                         2.330080E-01      2.100840E-01
   NITROGEN                       7.669920E-01      7.899160E-01
 
     Viscosity (kg/m/s) Ambient,  293 K:  1.80E-05
                                  500 K:  2.62E-05
                                 1000 K:  4.13E-05
                                 1500 K:  5.37E-05
   Therm. Cond. (W/m/K) Ambient,  293 K:  2.56E-02
                                  500 K:  3.82E-02
                                 1000 K:  6.67E-02
                                 1500 K:  9.22E-02
        Enthalpy (J/kg) Ambient,  293 K: -5.06E+03
                                  500 K:  2.06E+05
                                 1000 K:  7.53E+05
                                 1500 K:  1.35E+06
    Spec. Heat (J/kg/K) Ambient,  293 K:  1.01E+03
                                  500 K:  1.04E+03
                                 1000 K:  1.15E+03
                                 1500 K:  1.22E+03
   Diff. Coeff. (m^2/s) Ambient,  293 K:  1.99E-05
                                  500 K:  4.95E-05
                                 1000 K:  1.58E-04
                                 1500 K:  3.09E-04

   PUR
   Molecular Weight (g/mol)            99.99998
   Ambient Density (kg/m^3)            4.157
   Initial Mass Fraction               0.000
   Enthalpy of Formation (J/kg)      0.00E+00

   Sub Species                    Mass Fraction     Mole Fraction
   PUR                            1.000000E+00      1.000000E+00
 
     Viscosity (kg/m/s) Ambient,  293 K:  3.29E-05
                                  500 K:  4.75E-05
                                 1000 K:  7.46E-05
                                 1500 K:  9.70E-05
   Therm. Cond. (W/m/K) Ambient,  293 K:  1.35E-02
                                  500 K:  1.95E-02
                                 1000 K:  3.06E-02
                                 1500 K:  3.98E-02
        Enthalpy (J/kg) Ambient,  293 K:  8.53E+04
                                  500 K:  1.46E+05
                                 1000 K:  2.91E+05
                                 1500 K:  4.37E+05
    Spec. Heat (J/kg/K) Ambient,  293 K:  2.91E+02
                                  500 K:  2.91E+02
                                 1000 K:  2.91E+02
                                 1500 K:  2.91E+02
   Diff. Coeff. (m^2/s) Ambient,  293 K:  1.59E-05
                                  500 K:  3.95E-05
                                 1000 K:  1.25E-04
                                 1500 K:  2.46E-04

   PRODUCTS
   Molecular Weight (g/mol)            27.71385
   Ambient Density (kg/m^3)            1.152
   Initial Mass Fraction               0.000
   Enthalpy of Formation (J/kg)     -2.97E+06

   Sub Species                    Mass Fraction     Mole Fraction
   HCN                            1.606385E-03      1.647310E-03
   AMMONIA                        2.370473E-03      3.857483E-03
   CARBON MONOXIDE                7.647716E-02      7.566830E-02
   CARBON DIOXIDE                 1.474040E-01      9.282390E-02
   WATER VAPOR                    1.004531E-01      1.545323E-01
   NITROGEN                       6.560658E-01      6.490504E-01
   SOOT                           8.870416E-03      2.046786E-02
   BENZENE                        2.723008E-03      9.661152E-04
   BENZONITRILE                   1.308805E-03      3.517414E-04
   BIPHENYL                       7.859822E-05      1.412548E-05
   INDENE                         1.902022E-04      4.537916E-05
   ISOQUINOLINE                   3.807942E-04      8.170787E-05
   NAPHTHALENE                    1.046019E-03      2.261769E-04
   NAPHTHALENE-1-CARBONITRILE     2.325868E-04      4.208040E-05
   STYRENE                        3.620506E-04      9.634085E-05
   TOLUENE                        4.105665E-04      1.234922E-04
   XYLENE                         1.992720E-05      5.201899E-06
 
     Viscosity (kg/m/s) Ambient,  293 K:  1.61E-05
                                  500 K:  2.39E-05
                                 1000 K:  3.89E-05
                                 1500 K:  5.13E-05
   Therm. Cond. (W/m/K) Ambient,  293 K:  2.34E-02
                                  500 K:  3.63E-02
                                 1000 K:  6.75E-02
                                 1500 K:  9.68E-02
        Enthalpy (J/kg) Ambient,  293 K: -2.98E+06
                                  500 K: -2.75E+06
                                 1000 K: -2.13E+06
                                 1500 K: -1.45E+06
    Spec. Heat (J/kg/K) Ambient,  293 K:  1.09E+03
                                  500 K:  1.14E+03
                                 1000 K:  1.30E+03
                                 1500 K:  1.41E+03
   Diff. Coeff. (m^2/s) Ambient,  293 K:  1.97E-05
                                  500 K:  5.00E-05
                                 1000 K:  1.61E-04
                                 1500 K:  3.17E-04


 Gas Phase Reaction Information

   Reaction ID:  Brandfläche

   Fuel                                           Heat of Combustion (kJ/kg)
   PUR                                                            19472.3158

   Stoichiometry

   Primitive Species Stoich. Coeff.
   Species ID                                                          Molar
   PUR                                                             -1.000000
   OXYGEN                                                          -4.043567
   HCN                                                              0.038951
   AMMONIA                                                          0.091211
   CARBON MONOXIDE                                                  1.789193
   CARBON DIOXIDE                                                   2.194841
   WATER VAPOR                                                      3.653950
   NITROGEN                                                         0.143124
   SOOT                                                             0.483967
   BENZENE                                                          0.022844
   BENZONITRILE                                                     0.008317
   BIPHENYL                                                         0.000334
   INDENE                                                           0.001073
   ISOQUINOLINE                                                     0.001932
   NAPHTHALENE                                                      0.005348
   NAPHTHALENE-1-CARBONITRILE                                       0.000995
   STYRENE                                                          0.002278
   TOLUENE                                                          0.002920
   XYLENE                                                           0.000123

   Tracked (Lumped) Species Stoich. Coeff.
   Species ID                                             Molar         Mass
   AIR                                               -19.247379    -5.552999
   PUR                                                -1.000000    -1.000000
   PRODUCTS                                           23.645213     6.553000

   Reaction Kinetics

   Arrhenius Parameters
   Pre-exponential:    Infinite
   Activation Energy:  N/A

   ODE Solver:  EXPLICIT EULER
   Extinction Model:  EXTINCTION 2
   Auto-Ignition Temperature (K):       0.0
   Critical Flame Temperature (K):   1700.2


 Material Information

   1 Stahlbeton                                                  
     Emissivity                      0.900
     Density (kg/m3)                2300.0
     Specific Heat (kJ/kg/K)      1.00E+00
     Conductivity (W/m/K)          2.30E+00


 Surface Conditions

   0 INERT (DEFAULT)

   1 wall
     Material List
          1  Stahlbeton
     Layer  1
        Thickness   (m):  0.08000
        Density (kg/m3):  2300.00
        Stahlbeton, Mass fraction:    1.00
     Total surface density   184.000 kg/m2
     Reaction products considered from the first  0.50 layers.
     Solid Phase Node, Layer, Coordinates(m):
                    0      1       0.0000000
                    1      1       0.0008511
                    2      1       0.0025532
                    3      1       0.0059574
                    4      1       0.0127660
                    5      1       0.0263830
                    6      1       0.0536170
                    7      1       0.0672340
                    8      1       0.0740426
                    9      1       0.0774468
                   10      1       0.0791489
                   11      1       0.0800000
     Exposed Backing

   2 Boden
     Material List
          1  Stahlbeton
     Layer  1
        Thickness   (m):  0.20000
        Density (kg/m3):  2300.00
        Stahlbeton, Mass fraction:    1.00
     Total surface density   460.000 kg/m2
     Reaction products considered from the first  0.50 layers.
     Solid Phase Node, Layer, Coordinates(m):
                    0      1       0.0000000
                    1      1       0.0007874
                    2      1       0.0023622
                    3      1       0.0055118
                    4      1       0.0118110
                    5      1       0.0244094
                    6      1       0.0496063
                    7      1       0.1000000
                    8      1       0.1503937
                    9      1       0.1755906
                   10      1       0.1881890
                   11      1       0.1944882
                   12      1       0.1976378
                   13      1       0.1992126
                   14      1       0.2000000
     Exposed Backing

   3 Brandfläche
     HRR Per Unit Area (kW/m2)       2823.1
     PUR Mass Flux (kg/s/m2)   1.45E-01

   4 OPEN
     Passive Vent to Atmosphere

   5 MIRROR
     Symmetry Plane

   6 INTERPOLATED

   7 PERIODIC

   8 HVAC

   9 MASSLESS TRACER

  10 DROPLET

  11 EVACUATION_OUTFLOW
     Normal Velocity (m/s)         0.000

  12 MASSLESS TARGET

  13 PERIODIC FLOW ONLY


 Slice File Information, Mesh     1

   Sampling Interval (s)             0.000

   1 Nodes:   0  20   4   4   0  72, Quantity: TEMPERATURE
   2 Nodes:   0  20   6   6   0  72, Quantity: TEMPERATURE
   3 Nodes:   0  20   7   7   0  72, Quantity: TEMPERATURE
   4 Nodes:   0  20   9   9   0  72, Quantity: TEMPERATURE
   5 Nodes:   0  20  11  11   0  72, Quantity: TEMPERATURE
   6 Nodes:   0  20   0  16  23  23, Quantity: TEMPERATURE
   7 Nodes:   0  20   0  16  43  43, Quantity: TEMPERATURE
   8 Nodes:   0  20   0  16  63  63, Quantity: TEMPERATURE


 Slice File Information, Mesh     2

   Sampling Interval (s)             0.000

   1 Nodes:   0  20   4   4   0  72, Quantity: TEMPERATURE
   2 Nodes:   0  20   6   6   0  72, Quantity: TEMPERATURE
   3 Nodes:   0  20   7   7   0  72, Quantity: TEMPERATURE
   4 Nodes:   0  20   9   9   0  72, Quantity: TEMPERATURE
   5 Nodes:   0  20  11  11   0  72, Quantity: TEMPERATURE
   6 Nodes:   0  20   0  16  23  23, Quantity: TEMPERATURE
   7 Nodes:   0  20   0  16  43  43, Quantity: TEMPERATURE
   8 Nodes:   0  20   0  16  63  63, Quantity: TEMPERATURE


 Boundary File Information

   Sampling Interval (s)             0.000

   1 Quantity: WALL TEMPERATURE
   2 Quantity: BACK WALL TEMPERATURE


 Radiation Model Information

   Number of control angles  104
   Time step increment         3
   Angle increment             5
   Theta band N_phi   Solid angle
     1:        4     0.120
     2:       12     0.114
     3:       16     0.127
     4:       20     0.120
     5:       20     0.120
     6:       16     0.127
     7:       12     0.114
     8:        4     0.120
   Using gray gas absorption.
   Mean beam length  0.100 m
 
 

 Run Time Diagnostics

       Time Step       1   January 18, 2021  17:49:40
       Step Size:    0.100E+00 s, Total Time:       0.10 s
       Pressure Iterations:      1
       Maximum Velocity Error:  0.32E-02 on Mesh   1 at (   9   8   6)
       Maximum Pressure Error:  0.23E-04 on Mesh   2 at (  15   7  72)
       ---------------------------------------------------------------
       Mesh    1
       Max CFL number:  0.27E-01 at (   9,  13,   8)
       Max divergence:  0.83E-06 at (  13,  14,  41)
       Min divergence: -0.87E-06 at (   6,   6,   2)
       Max VN number:   0.47E-01 at (   5,   5,  26)
       Mesh    2
       Max CFL number:  0.21E-01 at (   7,  13,  62)
       Max divergence:  0.65E-06 at (  14,   7,  39)
       Min divergence: -0.72E-06 at (  15,   8,  28)
       Max VN number:   0.68E-01 at (  12,  10,  26)
 


 Time Stepping Wall Clock Time (s):        0.392
 Total Elapsed Wall Clock Time (s):        3.773

STOP: FDS completed successfully (CHID: wall_test)
