
 Fire Dynamics Simulator

 Current Date     : November 30, 2020  14:39:41
 Revision         : FDS6.7.5-0-g71f025606-release
 Revision Date    : Thu Aug 20 16:19:01 2020 -0400
 Compiler         : Intel ifort 19.1.1.216
 Compilation Date : Fri 08/21/2020  04:51 PM

 MPI Enabled;    Number of MPI Processes:       1
 OpenMP Enabled; Number of OpenMP Threads:      4

 MPI version: 3.1
 MPI library version: Intel(R) MPI Library 2019 Update 7 for Windows* OS


 Job TITLE        : 2D Vortex Simulation, Mesh Size = 80
 Job ID string    : isof_80


 Grid Dimensions, Mesh     1

   Cells in the X Direction            80
   Cells in the Y Direction             1
   Cells in the Z Direction            80
   Number of Grid Cells              6400


 Physical Dimensions, Mesh     1

   Length (m)                       0.311
   Width  (m)                       0.004
   Height (m)                       0.311
   Initial Time Step (s)            0.000

Total Number of Grid Cells          6400


 Miscellaneous Parameters

   Simulation Start Time (s)          0.0
   Simulation End Time (s)            0.0
   Ambient Temperature (C):         20.00


 Mass Fraction Transformation Matrix to Convert Species Mixtures (Columns) to Primitive Species (Rows)

                         AIR     
   AIR                   1.000000


 Primitive Species Information

   AIR
   Gas Species
   Molecular Weight (g/mol)            28.01340
   Ambient Density (kg/m^3)            1.165
   Enthalpy of Formation (J/kg)        0.00E+00


 Tracked (Lumped) Species Information

   AIR
   Molecular Weight (g/mol)            28.01340
   Ambient Density (kg/m^3)            1.165
   Initial Mass Fraction               1.000
   Enthalpy of Formation (J/kg)      0.00E+00

   Sub Species                    Mass Fraction     Mole Fraction
   AIR                            1.000000E+00      1.000000E+00
 
     Viscosity (kg/m/s) Ambient,  293 K:  0.00E+00
                                  500 K:  0.00E+00
                                 1000 K:  0.00E+00
                                 1500 K:  0.00E+00
   Therm. Cond. (W/m/K) Ambient,  293 K:  0.00E+00
                                  500 K:  0.00E+00
                                 1000 K:  0.00E+00
                                 1500 K:  0.00E+00
        Enthalpy (J/kg) Ambient,  293 K:  3.05E+05
                                  500 K:  5.19E+05
                                 1000 K:  1.04E+06
                                 1500 K:  1.56E+06
    Spec. Heat (J/kg/K) Ambient,  293 K:  1.04E+03
                                  500 K:  1.04E+03
                                 1000 K:  1.04E+03
                                 1500 K:  1.04E+03
   Diff. Coeff. (m^2/s) Ambient,  293 K:  1.99E-05
                                  500 K:  4.93E-05
                                 1000 K:  1.57E-04
                                 1500 K:  3.07E-04


 Material Information


 Surface Conditions

   0 INERT (DEFAULT)

   1 OPEN
     Passive Vent to Atmosphere

   2 MIRROR
     Symmetry Plane

   3 INTERPOLATED

   4 PERIODIC

   5 HVAC

   6 MASSLESS TRACER

   7 DROPLET

   8 EVACUATION_OUTFLOW
     Normal Velocity (m/s)         0.000

   9 MASSLESS TARGET

  10 PERIODIC FLOW ONLY


 Isosurface File Information

   Sampling Interval (s)             0.000

   1 Quantity: TEMPERATURE, VALUE(s):  50.000 200.000 500.000
   2 Quantity: U-VELOCITY, VALUE(s):   0.050
   3 Quantity: TEMPERATURE, VALUE(s):  60.000 300.000 600.000
   4 Quantity: U-VELOCITY, VALUE(s):   0.080
 
 

 Run Time Diagnostics

       Time Step       1   November 30, 2020  14:39:41
       Step Size:    0.471E-04 s, Total Time:    0.00005 s
       Pressure Iterations:      1
       Maximum Velocity Error:  0.65E-06 on Mesh   1 at (   0   1  49)
       Maximum Pressure Error:  0.37E-07 on Mesh   1 at (  66   1   8)
       ---------------------------------------------------------------
       Max CFL number:  0.45E+00 at (  38,   1,  38)
       Max divergence:  0.18E-11 at (  47,   1,  53)
       Min divergence: -0.18E-11 at (  41,   1,  36)
       Max VN number:   0.00E+00 at (  80,   1,  80)
 
       Time Step       2   November 30, 2020  14:39:42
       Step Size:    0.471E-04 s, Total Time:    0.00009 s
       Pressure Iterations:      1
       Maximum Velocity Error:  0.12E-05 on Mesh   1 at (   0   1  49)
       Maximum Pressure Error:  0.41E-07 on Mesh   1 at (   1   1   8)
       ---------------------------------------------------------------
       Max CFL number:  0.45E+00 at (  38,   1,  38)
       Max divergence:  0.18E-11 at (  40,   1,  14)
       Min divergence: -0.18E-11 at (  57,   1,  48)
       Max VN number:   0.00E+00 at (  80,   1,  80)
 
       Time Step       3   November 30, 2020  14:39:42
       Step Size:    0.471E-04 s, Total Time:     0.0001 s
       Pressure Iterations:      1
       Maximum Velocity Error:  0.16E-05 on Mesh   1 at (   0   1  49)
       Maximum Pressure Error:  0.48E-07 on Mesh   1 at (  36   1  38)
       ---------------------------------------------------------------
       Max CFL number:  0.45E+00 at (  39,   1,  37)
       Max divergence:  0.18E-11 at (  43,   1,  80)
       Min divergence: -0.18E-11 at (  31,   1,  52)
       Max VN number:   0.00E+00 at (  80,   1,  80)
 
       Time Step       4   November 30, 2020  14:39:42
       Step Size:    0.471E-04 s, Total Time:     0.0002 s
       Pressure Iterations:      1
       Maximum Velocity Error:  0.18E-05 on Mesh   1 at (   0   1  49)
       Maximum Pressure Error:  0.42E-07 on Mesh   1 at (  55   1  72)
       ---------------------------------------------------------------
       Max CFL number:  0.45E+00 at (  39,   1,  38)
       Max divergence:  0.18E-11 at (  51,   1,  50)
       Min divergence: -0.18E-11 at (  38,   1,  39)
       Max VN number:   0.00E+00 at (  80,   1,  80)
 
       Time Step       5   November 30, 2020  14:39:42
       Step Size:    0.471E-04 s, Total Time:     0.0002 s
       Pressure Iterations:      1
       Maximum Velocity Error:  0.18E-05 on Mesh   1 at (   0   1  50)
       Maximum Pressure Error:  0.43E-07 on Mesh   1 at (  54   1  61)
       ---------------------------------------------------------------
       Max CFL number:  0.45E+00 at (  40,   1,  37)
       Max divergence:  0.18E-11 at (  43,   1,  26)
       Min divergence: -0.18E-11 at (  18,   1,  29)
       Max VN number:   0.00E+00 at (  80,   1,  80)
 
       Time Step       6   November 30, 2020  14:39:42
       Step Size:    0.471E-04 s, Total Time:     0.0003 s
       Pressure Iterations:      1
       Maximum Velocity Error:  0.18E-05 on Mesh   1 at (   0   1  50)
       Maximum Pressure Error:  0.41E-07 on Mesh   1 at (  22   1  45)
       ---------------------------------------------------------------
       Max CFL number:  0.45E+00 at (  40,   1,  38)
       Max divergence:  0.17E-11 at (  73,   1,  60)
       Min divergence: -0.18E-11 at (  38,   1,  78)
       Max VN number:   0.00E+00 at (  80,   1,  80)
 
       Time Step       7   November 30, 2020  14:39:42
       Step Size:    0.471E-04 s, Total Time:     0.0003 s
       Pressure Iterations:      1
       Maximum Velocity Error:  0.16E-05 on Mesh   1 at (   0   1  51)
       Maximum Pressure Error:  0.44E-07 on Mesh   1 at (  17   1  57)
       ---------------------------------------------------------------
       Max CFL number:  0.45E+00 at (  40,   1,  38)
       Max divergence:  0.18E-11 at (  55,   1,  68)
       Min divergence: -0.18E-11 at (  67,   1,  25)
       Max VN number:   0.00E+00 at (  80,   1,  80)
 
       Time Step       8   November 30, 2020  14:39:42
       Step Size:    0.471E-04 s, Total Time:     0.0004 s
       Pressure Iterations:      1
       Maximum Velocity Error:  0.13E-05 on Mesh   1 at (   0   1  52)
       Maximum Pressure Error:  0.43E-07 on Mesh   1 at (  72   1  38)
       ---------------------------------------------------------------
       Max CFL number:  0.45E+00 at (  41,   1,  38)
       Max divergence:  0.18E-11 at (  40,   1,  38)
       Min divergence: -0.18E-11 at (  72,   1,  53)
       Max VN number:   0.00E+00 at (  80,   1,  80)
 
       Time Step       9   November 30, 2020  14:39:42
       Step Size:    0.471E-04 s, Total Time:     0.0004 s
       Pressure Iterations:      1
       Maximum Velocity Error:  0.11E-05 on Mesh   1 at (   0   1  55)
       Maximum Pressure Error:  0.45E-07 on Mesh   1 at (  53   1  68)
       ---------------------------------------------------------------
       Max CFL number:  0.45E+00 at (  41,   1,  38)
       Max divergence:  0.18E-11 at (  80,   1,  57)
       Min divergence: -0.18E-11 at (   4,   1,  58)
       Max VN number:   0.00E+00 at (  80,   1,  80)
 
       Time Step      10   November 30, 2020  14:39:42
       Step Size:    0.471E-04 s, Total Time:     0.0005 s
       Pressure Iterations:      1
       Maximum Velocity Error:  0.94E-06 on Mesh   1 at (  36   1   0)
       Maximum Pressure Error:  0.38E-07 on Mesh   1 at (  51   1  74)
       ---------------------------------------------------------------
       Max CFL number:  0.45E+00 at (  42,   1,  37)
       Max divergence:  0.18E-11 at (  32,   1,  51)
       Min divergence: -0.18E-11 at (   3,   1,   8)
       Max VN number:   0.00E+00 at (  80,   1,  80)
 
       Time Step      20   November 30, 2020  14:39:43
       Step Size:    0.471E-04 s, Total Time:     0.0009 s
       Pressure Iterations:      1
       Maximum Velocity Error:  0.14E-05 on Mesh   1 at (   0   1  37)
       Maximum Pressure Error:  0.44E-07 on Mesh   1 at (  71   1  80)
       ---------------------------------------------------------------
       Max CFL number:  0.45E+00 at (  46,   1,  38)
       Max divergence:  0.18E-11 at (  48,   1,  74)
       Min divergence: -0.18E-11 at (  52,   1,  60)
       Max VN number:   0.00E+00 at (  80,   1,  80)
 
       Time Step      30   November 30, 2020  14:39:44
       Step Size:    0.471E-04 s, Total Time:      0.001 s
       Pressure Iterations:      1
       Maximum Velocity Error:  0.27E-05 on Mesh   1 at (   0   1  37)
       Maximum Pressure Error:  0.40E-07 on Mesh   1 at (  20   1  64)
       ---------------------------------------------------------------
       Max CFL number:  0.45E+00 at (  50,   1,  38)
       Max divergence:  0.18E-11 at (  12,   1,  74)
       Min divergence: -0.18E-11 at (  33,   1,  71)
       Max VN number:   0.00E+00 at (  80,   1,  80)
 
       Time Step      40   November 30, 2020  14:39:45
       Step Size:    0.471E-04 s, Total Time:      0.002 s
       Pressure Iterations:      1
       Maximum Velocity Error:  0.79E-05 on Mesh   1 at (   0   1  37)
       Maximum Pressure Error:  0.41E-07 on Mesh   1 at (  37   1  23)
       ---------------------------------------------------------------
       Max CFL number:  0.45E+00 at (  54,   1,  38)
       Max divergence:  0.18E-11 at (  52,   1,  78)
       Min divergence: -0.18E-11 at (  34,   1,   1)
       Max VN number:   0.00E+00 at (  80,   1,  80)
 
       Time Step      50   November 30, 2020  14:39:46
       Step Size:    0.471E-04 s, Total Time:      0.002 s
       Pressure Iterations:      1
       Maximum Velocity Error:  0.77E-04 on Mesh   1 at (   0   1  37)
       Maximum Pressure Error:  0.44E-07 on Mesh   1 at (  62   1  51)
       ---------------------------------------------------------------
       Max CFL number:  0.45E+00 at (  58,   1,  38)
       Max divergence:  0.18E-11 at (  33,   1,   3)
       Min divergence: -0.18E-11 at (  21,   1,   6)
       Max VN number:   0.00E+00 at (  80,   1,  80)
 
       Time Step      60   November 30, 2020  14:39:47
       Step Size:    0.471E-04 s, Total Time:      0.003 s
       Pressure Iterations:      1
       Maximum Velocity Error:  0.13E-02 on Mesh   1 at (   0   1  37)
       Maximum Pressure Error:  0.46E-07 on Mesh   1 at (  20   1  35)
       ---------------------------------------------------------------
       Max CFL number:  0.45E+00 at (  62,   1,  38)
       Max divergence:  0.18E-11 at (  48,   1,  72)
       Min divergence: -0.18E-11 at (  74,   1,  57)
       Max VN number:   0.00E+00 at (  80,   1,  80)
 
       Time Step      70   November 30, 2020  14:39:47
       Step Size:    0.471E-04 s, Total Time:      0.003 s
       Pressure Iterations:      3
       Maximum Velocity Error:  0.15E-02 on Mesh   1 at (   0   1  36)
       Maximum Pressure Error:  0.43E-07 on Mesh   1 at (   2   1  56)
       ---------------------------------------------------------------
       Max CFL number:  0.45E+00 at (  66,   1,  38)
       Max divergence:  0.18E-11 at (  75,   1,  35)
       Min divergence: -0.18E-11 at (  74,   1,  30)
       Max VN number:   0.00E+00 at (  80,   1,  80)
 
       Time Step      80   November 30, 2020  14:39:49
       Step Size:    0.471E-04 s, Total Time:      0.004 s
       Pressure Iterations:      6
       Maximum Velocity Error:  0.15E-02 on Mesh   1 at (   0   1  35)
       Maximum Pressure Error:  0.45E-07 on Mesh   1 at (  26   1  14)
       ---------------------------------------------------------------
       Max CFL number:  0.45E+00 at (  70,   1,  38)
       Max divergence:  0.18E-11 at (  75,   1,   8)
       Min divergence: -0.18E-11 at (  68,   1,  12)
       Max VN number:   0.00E+00 at (  80,   1,  80)
 
       Time Step      90   November 30, 2020  14:39:50
       Step Size:    0.471E-04 s, Total Time:      0.004 s
       Pressure Iterations:      7
       Maximum Velocity Error:  0.15E-02 on Mesh   1 at (   0   1  46)
       Maximum Pressure Error:  0.42E-07 on Mesh   1 at (  54   1  54)
       ---------------------------------------------------------------
       Max CFL number:  0.45E+00 at (  74,   1,  38)
       Max divergence:  0.18E-11 at (  28,   1,  29)
       Min divergence: -0.18E-11 at (  33,   1,  62)
       Max VN number:   0.00E+00 at (  80,   1,  80)
 
       Time Step     100   November 30, 2020  14:39:51
       Step Size:    0.471E-04 s, Total Time:      0.005 s
       Pressure Iterations:      5
       Maximum Velocity Error:  0.19E-02 on Mesh   1 at (   0   1  46)
       Maximum Pressure Error:  0.39E-07 on Mesh   1 at (  42   1  18)
       ---------------------------------------------------------------
       Max CFL number:  0.45E+00 at (  78,   1,  38)
       Max divergence:  0.18E-11 at (  32,   1,  55)
       Min divergence: -0.18E-11 at (  74,   1,  69)
       Max VN number:   0.00E+00 at (  80,   1,  80)
 
       Time Step     200   November 30, 2020  14:40:01
       Step Size:    0.471E-04 s, Total Time:      0.009 s
       Pressure Iterations:      1
       Maximum Velocity Error:  0.17E-03 on Mesh   1 at (   0   1  45)
       Maximum Pressure Error:  0.43E-07 on Mesh   1 at (  21   1  63)
       ---------------------------------------------------------------
       Max CFL number:  0.45E+00 at (  40,   1,  37)
       Max divergence:  0.18E-11 at (  11,   1,  60)
       Min divergence: -0.18E-11 at (  37,   1,  27)
       Max VN number:   0.00E+00 at (  80,   1,  80)
 
       Time Step     213   November 30, 2020  14:40:02
       Step Size:    0.123E-04 s, Total Time:       0.01 s
       Pressure Iterations:      1
       Maximum Velocity Error:  0.12E-03 on Mesh   1 at (   0   1  49)
       Maximum Pressure Error:  0.43E-07 on Mesh   1 at (  52   1  47)
       ---------------------------------------------------------------
       Max CFL number:  0.12E+00 at (  45,   1,  37)
       Max divergence:  0.18E-11 at (  51,   1,  74)
       Min divergence: -0.18E-11 at (  48,   1,  72)
       Max VN number:   0.00E+00 at (  80,   1,  80)
 


 Time Stepping Wall Clock Time (s):       20.495
 Total Elapsed Wall Clock Time (s):       20.981

STOP: FDS completed successfully (CHID: isof_80)
