
 Fire Dynamics Simulator

 Current Date     : November 30, 2020  14:46:46
 Revision         : FDS6.7.5-0-g71f025606-release
 Revision Date    : Thu Aug 20 16:19:01 2020 -0400
 Compiler         : Intel ifort 19.1.1.216
 Compilation Date : Fri 08/21/2020  04:51 PM

 MPI Enabled;    Number of MPI Processes:       1
 OpenMP Enabled; Number of OpenMP Threads:      4

 MPI version: 3.1
 MPI library version: Intel(R) MPI Library 2019 Update 7 for Windows* OS


 Job TITLE        : 
 Job ID string    : wall_test


 Grid Dimensions, Mesh     1

   Cells in the X Direction            20
   Cells in the Y Direction            16
   Cells in the Z Direction            72
   Number of Grid Cells             23040


 Physical Dimensions, Mesh     1

   Length (m)                       1.000
   Width  (m)                       0.800
   Height (m)                       3.600
   Initial Time Step (s)            0.042

 Grid Dimensions, Mesh     2

   Cells in the X Direction            20
   Cells in the Y Direction            16
   Cells in the Z Direction            72
   Number of Grid Cells             23040


 Physical Dimensions, Mesh     2

   Length (m)                       1.000
   Width  (m)                       0.800
   Height (m)                       3.600
   Initial Time Step (s)            0.042

 Grid Dimensions, Mesh     3

   Cells in the X Direction            20
   Cells in the Y Direction            16
   Cells in the Z Direction            72
   Number of Grid Cells             23040


 Physical Dimensions, Mesh     3

   Length (m)                       1.000
   Width  (m)                       0.800
   Height (m)                       3.600
   Initial Time Step (s)            0.042

 Grid Dimensions, Mesh     4

   Cells in the X Direction            20
   Cells in the Y Direction            16
   Cells in the Z Direction            72
   Number of Grid Cells             23040


 Physical Dimensions, Mesh     4

   Length (m)                       1.000
   Width  (m)                       0.800
   Height (m)                       3.600
   Initial Time Step (s)            0.042

 Grid Dimensions, Mesh     5

   Cells in the X Direction            20
   Cells in the Y Direction            16
   Cells in the Z Direction            72
   Number of Grid Cells             23040


 Physical Dimensions, Mesh     5

   Length (m)                       1.000
   Width  (m)                       0.800
   Height (m)                       3.600
   Initial Time Step (s)            0.042

 Grid Dimensions, Mesh     6

   Cells in the X Direction            20
   Cells in the Y Direction            16
   Cells in the Z Direction            72
   Number of Grid Cells             23040


 Physical Dimensions, Mesh     6

   Length (m)                       1.000
   Width  (m)                       0.800
   Height (m)                       3.600
   Initial Time Step (s)            0.042

 Grid Dimensions, Mesh     7

   Cells in the X Direction            20
   Cells in the Y Direction            16
   Cells in the Z Direction            72
   Number of Grid Cells             23040


 Physical Dimensions, Mesh     7

   Length (m)                       1.000
   Width  (m)                       0.800
   Height (m)                       3.600
   Initial Time Step (s)            0.042

 Grid Dimensions, Mesh     8

   Cells in the X Direction            20
   Cells in the Y Direction            16
   Cells in the Z Direction            72
   Number of Grid Cells             23040


 Physical Dimensions, Mesh     8

   Length (m)                       1.000
   Width  (m)                       0.800
   Height (m)                       3.600
   Initial Time Step (s)            0.042

 Grid Dimensions, Mesh     9

   Cells in the X Direction            20
   Cells in the Y Direction            16
   Cells in the Z Direction            72
   Number of Grid Cells             23040


 Physical Dimensions, Mesh     9

   Length (m)                       1.000
   Width  (m)                       0.800
   Height (m)                       3.600
   Initial Time Step (s)            0.042

 Grid Dimensions, Mesh    10

   Cells in the X Direction            20
   Cells in the Y Direction            16
   Cells in the Z Direction            72
   Number of Grid Cells             23040


 Physical Dimensions, Mesh    10

   Length (m)                       1.000
   Width  (m)                       0.800
   Height (m)                       3.600
   Initial Time Step (s)            0.042

 Grid Dimensions, Mesh    11

   Cells in the X Direction            20
   Cells in the Y Direction            16
   Cells in the Z Direction            72
   Number of Grid Cells             23040


 Physical Dimensions, Mesh    11

   Length (m)                       1.000
   Width  (m)                       0.800
   Height (m)                       3.600
   Initial Time Step (s)            0.042

 Grid Dimensions, Mesh    12

   Cells in the X Direction            20
   Cells in the Y Direction            16
   Cells in the Z Direction            72
   Number of Grid Cells             23040


 Physical Dimensions, Mesh    12

   Length (m)                       1.000
   Width  (m)                       0.800
   Height (m)                       3.600
   Initial Time Step (s)            0.042

 Grid Dimensions, Mesh    13

   Cells in the X Direction            20
   Cells in the Y Direction            16
   Cells in the Z Direction            72
   Number of Grid Cells             23040


 Physical Dimensions, Mesh    13

   Length (m)                       1.000
   Width  (m)                       0.800
   Height (m)                       3.600
   Initial Time Step (s)            0.042

 Grid Dimensions, Mesh    14

   Cells in the X Direction            20
   Cells in the Y Direction            16
   Cells in the Z Direction            72
   Number of Grid Cells             23040


 Physical Dimensions, Mesh    14

   Length (m)                       1.000
   Width  (m)                       0.800
   Height (m)                       3.600
   Initial Time Step (s)            0.042

 Grid Dimensions, Mesh    15

   Cells in the X Direction            20
   Cells in the Y Direction            16
   Cells in the Z Direction            72
   Number of Grid Cells             23040


 Physical Dimensions, Mesh    15

   Length (m)                       1.000
   Width  (m)                       0.800
   Height (m)                       3.600
   Initial Time Step (s)            0.042

 Grid Dimensions, Mesh    16

   Cells in the X Direction            20
   Cells in the Y Direction            16
   Cells in the Z Direction            72
   Number of Grid Cells             23040


 Physical Dimensions, Mesh    16

   Length (m)                       1.000
   Width  (m)                       0.800
   Height (m)                       3.600
   Initial Time Step (s)            0.042

 Grid Dimensions, Mesh    17

   Cells in the X Direction            20
   Cells in the Y Direction            16
   Cells in the Z Direction            72
   Number of Grid Cells             23040


 Physical Dimensions, Mesh    17

   Length (m)                       1.000
   Width  (m)                       0.800
   Height (m)                       3.600
   Initial Time Step (s)            0.042

 Grid Dimensions, Mesh    18

   Cells in the X Direction            20
   Cells in the Y Direction            16
   Cells in the Z Direction            72
   Number of Grid Cells             23040


 Physical Dimensions, Mesh    18

   Length (m)                       1.000
   Width  (m)                       0.800
   Height (m)                       3.600
   Initial Time Step (s)            0.042

 Grid Dimensions, Mesh    19

   Cells in the X Direction            20
   Cells in the Y Direction            16
   Cells in the Z Direction            72
   Number of Grid Cells             23040


 Physical Dimensions, Mesh    19

   Length (m)                       1.000
   Width  (m)                       0.800
   Height (m)                       3.600
   Initial Time Step (s)            0.042

 Grid Dimensions, Mesh    20

   Cells in the X Direction            20
   Cells in the Y Direction            16
   Cells in the Z Direction            72
   Number of Grid Cells             23040


 Physical Dimensions, Mesh    20

   Length (m)                       1.000
   Width  (m)                       0.800
   Height (m)                       3.600
   Initial Time Step (s)            0.042

 Grid Dimensions, Mesh    21

   Cells in the X Direction            20
   Cells in the Y Direction            16
   Cells in the Z Direction            72
   Number of Grid Cells             23040


 Physical Dimensions, Mesh    21

   Length (m)                       1.000
   Width  (m)                       0.800
   Height (m)                       3.600
   Initial Time Step (s)            0.042

 Grid Dimensions, Mesh    22

   Cells in the X Direction            20
   Cells in the Y Direction            16
   Cells in the Z Direction            72
   Number of Grid Cells             23040


 Physical Dimensions, Mesh    22

   Length (m)                       1.000
   Width  (m)                       0.800
   Height (m)                       3.600
   Initial Time Step (s)            0.042

 Grid Dimensions, Mesh    23

   Cells in the X Direction            20
   Cells in the Y Direction            16
   Cells in the Z Direction            72
   Number of Grid Cells             23040


 Physical Dimensions, Mesh    23

   Length (m)                       1.000
   Width  (m)                       0.800
   Height (m)                       3.600
   Initial Time Step (s)            0.042

 Grid Dimensions, Mesh    24

   Cells in the X Direction            20
   Cells in the Y Direction            16
   Cells in the Z Direction            72
   Number of Grid Cells             23040


 Physical Dimensions, Mesh    24

   Length (m)                       1.000
   Width  (m)                       0.800
   Height (m)                       3.600
   Initial Time Step (s)            0.042

Total Number of Grid Cells        552960


 Miscellaneous Parameters

   Simulation Start Time (s)          0.0
   Simulation End Time (s)           20.0
   LES Calculation
   Eddy Viscosity:           Deardorff Model (C_DEARDORFF = 0.10)
   Near-wall Eddy Viscosity: Smagorinsky with Van Driest damping (C_SMAGORINSKY = 0.20)
   Turbulent Prandtl Number:         0.50
   Turbulent Schmidt Number:         0.50
   Ambient Temperature (C):         20.00


 Mass Fraction Transformation Matrix to Convert Species Mixtures (Columns) to Primitive Species (Rows)

                         AIR       PUR       PRODUCTS
   PUR                   0.000000  1.000000  0.000000
   OXYGEN                0.233008  0.000000  0.000000
   HCN                   0.000000  0.000000  0.001606
   AMMONIA               0.000000  0.000000  0.002370
   CARBON MONOXIDE       0.000000  0.000000  0.076477
   CARBON DIOXIDE        0.000000  0.000000  0.147404
   WATER VAPOR           0.000000  0.000000  0.100453
   NITROGEN              0.766992  0.000000  0.656066
   SOOT                  0.000000  0.000000  0.008870
   BENZENE               0.000000  0.000000  0.002723
   BENZONITRILE          0.000000  0.000000  0.001309
   BIPHENYL              0.000000  0.000000  0.000079
   INDENE                0.000000  0.000000  0.000190
   ISOQUINOLINE          0.000000  0.000000  0.000381
   NAPHTHALENE           0.000000  0.000000  0.001046
   NAPHTHALENE-1-CARBON  0.000000  0.000000  0.000233
   STYRENE               0.000000  0.000000  0.000362
   TOLUENE               0.000000  0.000000  0.000411
   XYLENE                0.000000  0.000000  0.000020


 Primitive Species Information

   PUR
   Gas Species
   Molecular Weight (g/mol)            99.99998
   Ambient Density (kg/m^3)            4.157
   Enthalpy of Formation (J/kg)        0.00E+00

   OXYGEN
   Gas Species
   Molecular Weight (g/mol)            31.99880
   Ambient Density (kg/m^3)            1.330
   Enthalpy of Formation (J/kg)        0.00E+00

   HCN
   Gas Species
   Molecular Weight (g/mol)            27.02534
   Ambient Density (kg/m^3)            1.123
   Enthalpy of Formation (J/kg)        0.00E+00

   AMMONIA
   Gas Species
   Molecular Weight (g/mol)            17.03052
   Ambient Density (kg/m^3)            0.708
   Enthalpy of Formation (J/kg)       -2.70E+06

   CARBON MONOXIDE
   Gas Species
   Molecular Weight (g/mol)            28.01010
   Ambient Density (kg/m^3)            1.164
   Enthalpy of Formation (J/kg)       -3.95E+06

   CARBON DIOXIDE
   Gas Species
   Molecular Weight (g/mol)            44.00950
   Ambient Density (kg/m^3)            1.830
   Enthalpy of Formation (J/kg)       -8.94E+06

   WATER VAPOR
   Gas Species
   Molecular Weight (g/mol)            18.01528
   Ambient Density (kg/m^3)            0.749
   Enthalpy of Formation (J/kg)       -1.34E+07

   NITROGEN
   Gas Species
   Molecular Weight (g/mol)            28.01340
   Ambient Density (kg/m^3)            1.165
   Enthalpy of Formation (J/kg)        0.00E+00

   SOOT
   Gas Species
   Molecular Weight (g/mol)            12.01070
   Ambient Density (kg/m^3)            0.499
   Enthalpy of Formation (J/kg)        0.00E+00

   BENZENE
   Gas Species
   Molecular Weight (g/mol)            78.11184
   Ambient Density (kg/m^3)            3.247
   Enthalpy of Formation (J/kg)        1.06E+06

   BENZONITRILE
   Gas Species
   Molecular Weight (g/mol)           103.12130
   Ambient Density (kg/m^3)            4.287
   Enthalpy of Formation (J/kg)        0.00E+00

   BIPHENYL
   Gas Species
   Molecular Weight (g/mol)           154.20780
   Ambient Density (kg/m^3)            6.411
   Enthalpy of Formation (J/kg)        0.00E+00

   INDENE
   Gas Species
   Molecular Weight (g/mol)           116.15982
   Ambient Density (kg/m^3)            4.829
   Enthalpy of Formation (J/kg)        0.00E+00

   ISOQUINOLINE
   Gas Species
   Molecular Weight (g/mol)           129.15858
   Ambient Density (kg/m^3)            5.369
   Enthalpy of Formation (J/kg)        0.00E+00

   NAPHTHALENE
   Gas Species
   Molecular Weight (g/mol)           128.17052
   Ambient Density (kg/m^3)            5.328
   Enthalpy of Formation (J/kg)        0.00E+00

   NAPHTHALENE-1-CARBONITRILE
   Gas Species
   Molecular Weight (g/mol)           153.17998
   Ambient Density (kg/m^3)            6.368
   Enthalpy of Formation (J/kg)        0.00E+00

   STYRENE
   Gas Species
   Molecular Weight (g/mol)           104.14912
   Ambient Density (kg/m^3)            4.330
   Enthalpy of Formation (J/kg)        0.00E+00

   TOLUENE
   Gas Species
   Molecular Weight (g/mol)            92.13842
   Ambient Density (kg/m^3)            3.830
   Enthalpy of Formation (J/kg)        5.45E+05

   XYLENE
   Gas Species
   Molecular Weight (g/mol)           106.16500
   Ambient Density (kg/m^3)            4.413
   Enthalpy of Formation (J/kg)        0.00E+00


 Tracked (Lumped) Species Information

   AIR
   Molecular Weight (g/mol)            28.85067
   Ambient Density (kg/m^3)            1.199
   Initial Mass Fraction               1.000
   Enthalpy of Formation (J/kg)      0.00E+00

   Sub Species                    Mass Fraction     Mole Fraction
   OXYGEN                         2.330080E-01      2.100840E-01
   NITROGEN                       7.669920E-01      7.899160E-01
 
     Viscosity (kg/m/s) Ambient,  293 K:  1.80E-05
                                  500 K:  2.62E-05
                                 1000 K:  4.13E-05
                                 1500 K:  5.37E-05
   Therm. Cond. (W/m/K) Ambient,  293 K:  2.56E-02
                                  500 K:  3.82E-02
                                 1000 K:  6.67E-02
                                 1500 K:  9.22E-02
        Enthalpy (J/kg) Ambient,  293 K: -5.06E+03
                                  500 K:  2.06E+05
                                 1000 K:  7.53E+05
                                 1500 K:  1.35E+06
    Spec. Heat (J/kg/K) Ambient,  293 K:  1.01E+03
                                  500 K:  1.04E+03
                                 1000 K:  1.15E+03
                                 1500 K:  1.22E+03
   Diff. Coeff. (m^2/s) Ambient,  293 K:  1.99E-05
                                  500 K:  4.95E-05
                                 1000 K:  1.58E-04
                                 1500 K:  3.09E-04

   PUR
   Molecular Weight (g/mol)            99.99998
   Ambient Density (kg/m^3)            4.157
   Initial Mass Fraction               0.000
   Enthalpy of Formation (J/kg)      0.00E+00

   Sub Species                    Mass Fraction     Mole Fraction
   PUR                            1.000000E+00      1.000000E+00
 
     Viscosity (kg/m/s) Ambient,  293 K:  3.29E-05
                                  500 K:  4.75E-05
                                 1000 K:  7.46E-05
                                 1500 K:  9.70E-05
   Therm. Cond. (W/m/K) Ambient,  293 K:  1.35E-02
                                  500 K:  1.95E-02
                                 1000 K:  3.06E-02
                                 1500 K:  3.98E-02
        Enthalpy (J/kg) Ambient,  293 K:  8.53E+04
                                  500 K:  1.46E+05
                                 1000 K:  2.91E+05
                                 1500 K:  4.37E+05
    Spec. Heat (J/kg/K) Ambient,  293 K:  2.91E+02
                                  500 K:  2.91E+02
                                 1000 K:  2.91E+02
                                 1500 K:  2.91E+02
   Diff. Coeff. (m^2/s) Ambient,  293 K:  1.59E-05
                                  500 K:  3.95E-05
                                 1000 K:  1.25E-04
                                 1500 K:  2.46E-04

   PRODUCTS
   Molecular Weight (g/mol)            27.71385
   Ambient Density (kg/m^3)            1.152
   Initial Mass Fraction               0.000
   Enthalpy of Formation (J/kg)     -2.97E+06

   Sub Species                    Mass Fraction     Mole Fraction
   HCN                            1.606385E-03      1.647310E-03
   AMMONIA                        2.370473E-03      3.857483E-03
   CARBON MONOXIDE                7.647716E-02      7.566830E-02
   CARBON DIOXIDE                 1.474040E-01      9.282390E-02
   WATER VAPOR                    1.004531E-01      1.545323E-01
   NITROGEN                       6.560658E-01      6.490504E-01
   SOOT                           8.870416E-03      2.046786E-02
   BENZENE                        2.723008E-03      9.661152E-04
   BENZONITRILE                   1.308805E-03      3.517414E-04
   BIPHENYL                       7.859822E-05      1.412548E-05
   INDENE                         1.902022E-04      4.537916E-05
   ISOQUINOLINE                   3.807942E-04      8.170787E-05
   NAPHTHALENE                    1.046019E-03      2.261769E-04
   NAPHTHALENE-1-CARBONITRILE     2.325868E-04      4.208040E-05
   STYRENE                        3.620506E-04      9.634085E-05
   TOLUENE                        4.105665E-04      1.234922E-04
   XYLENE                         1.992720E-05      5.201899E-06
 
     Viscosity (kg/m/s) Ambient,  293 K:  1.61E-05
                                  500 K:  2.39E-05
                                 1000 K:  3.89E-05
                                 1500 K:  5.13E-05
   Therm. Cond. (W/m/K) Ambient,  293 K:  2.34E-02
                                  500 K:  3.63E-02
                                 1000 K:  6.75E-02
                                 1500 K:  9.68E-02
        Enthalpy (J/kg) Ambient,  293 K: -2.98E+06
                                  500 K: -2.75E+06
                                 1000 K: -2.13E+06
                                 1500 K: -1.45E+06
    Spec. Heat (J/kg/K) Ambient,  293 K:  1.09E+03
                                  500 K:  1.14E+03
                                 1000 K:  1.30E+03
                                 1500 K:  1.41E+03
   Diff. Coeff. (m^2/s) Ambient,  293 K:  1.97E-05
                                  500 K:  5.00E-05
                                 1000 K:  1.61E-04
                                 1500 K:  3.17E-04


 Gas Phase Reaction Information

   Reaction ID:  Brandfläche

   Fuel                                           Heat of Combustion (kJ/kg)
   PUR                                                            19472.3158

   Stoichiometry

   Primitive Species Stoich. Coeff.
   Species ID                                                          Molar
   PUR                                                             -1.000000
   OXYGEN                                                          -4.043567
   HCN                                                              0.038951
   AMMONIA                                                          0.091211
   CARBON MONOXIDE                                                  1.789193
   CARBON DIOXIDE                                                   2.194841
   WATER VAPOR                                                      3.653950
   NITROGEN                                                         0.143124
   SOOT                                                             0.483967
   BENZENE                                                          0.022844
   BENZONITRILE                                                     0.008317
   BIPHENYL                                                         0.000334
   INDENE                                                           0.001073
   ISOQUINOLINE                                                     0.001932
   NAPHTHALENE                                                      0.005348
   NAPHTHALENE-1-CARBONITRILE                                       0.000995
   STYRENE                                                          0.002278
   TOLUENE                                                          0.002920
   XYLENE                                                           0.000123

   Tracked (Lumped) Species Stoich. Coeff.
   Species ID                                             Molar         Mass
   AIR                                               -19.247379    -5.552999
   PUR                                                -1.000000    -1.000000
   PRODUCTS                                           23.645213     6.553000

   Reaction Kinetics

   Arrhenius Parameters
   Pre-exponential:    Infinite
   Activation Energy:  N/A

   ODE Solver:  EXPLICIT EULER
   Extinction Model:  EXTINCTION 2
   Auto-Ignition Temperature (K):       0.0
   Critical Flame Temperature (K):   1700.2


 Material Information

   1 Stahlbeton                                                  
     Emissivity                      0.900
     Density (kg/m3)                2300.0
     Specific Heat (kJ/kg/K)      1.00E+00
     Conductivity (W/m/K)          2.30E+00


 Surface Conditions

   0 INERT (DEFAULT)

   1 wall
     Material List
          1  Stahlbeton
     Layer  1
        Thickness   (m):  0.08000
        Density (kg/m3):  2300.00
        Stahlbeton, Mass fraction:    1.00
     Total surface density   184.000 kg/m2
     Reaction products considered from the first  0.50 layers.
     Solid Phase Node, Layer, Coordinates(m):
                    0      1       0.0000000
                    1      1       0.0008511
                    2      1       0.0025532
                    3      1       0.0059574
                    4      1       0.0127660
                    5      1       0.0263830
                    6      1       0.0536170
                    7      1       0.0672340
                    8      1       0.0740426
                    9      1       0.0774468
                   10      1       0.0791489
                   11      1       0.0800000
     Exposed Backing

   2 Boden
     Material List
          1  Stahlbeton
     Layer  1
        Thickness   (m):  0.20000
        Density (kg/m3):  2300.00
        Stahlbeton, Mass fraction:    1.00
     Total surface density   460.000 kg/m2
     Reaction products considered from the first  0.50 layers.
     Solid Phase Node, Layer, Coordinates(m):
                    0      1       0.0000000
                    1      1       0.0007874
                    2      1       0.0023622
                    3      1       0.0055118
                    4      1       0.0118110
                    5      1       0.0244094
                    6      1       0.0496063
                    7      1       0.1000000
                    8      1       0.1503937
                    9      1       0.1755906
                   10      1       0.1881890
                   11      1       0.1944882
                   12      1       0.1976378
                   13      1       0.1992126
                   14      1       0.2000000
     Exposed Backing

   3 Brandfläche
     HRR Per Unit Area (kW/m2)       2823.1
     PUR Mass Flux (kg/s/m2)   1.45E-01

   4 OPEN
     Passive Vent to Atmosphere

   5 MIRROR
     Symmetry Plane

   6 INTERPOLATED

   7 PERIODIC

   8 HVAC

   9 MASSLESS TRACER

  10 DROPLET

  11 EVACUATION_OUTFLOW
     Normal Velocity (m/s)         0.000

  12 MASSLESS TARGET

  13 PERIODIC FLOW ONLY


 Slice File Information, Mesh     1

   Sampling Interval (s)             0.020

   1 Nodes:   0  20   0  16  23  23, Quantity: TEMPERATURE
   2 Nodes:   0  20   0  16  43  43, Quantity: TEMPERATURE
   3 Nodes:   0  20   0  16  63  63, Quantity: TEMPERATURE


 Slice File Information, Mesh     2

   Sampling Interval (s)             0.020

   1 Nodes:   0  20   0  16  23  23, Quantity: TEMPERATURE
   2 Nodes:   0  20   0  16  43  43, Quantity: TEMPERATURE
   3 Nodes:   0  20   0  16  63  63, Quantity: TEMPERATURE


 Slice File Information, Mesh     3

   Sampling Interval (s)             0.020

   1 Nodes:   0  20   0  16  23  23, Quantity: TEMPERATURE
   2 Nodes:   0  20   0  16  43  43, Quantity: TEMPERATURE
   3 Nodes:   0  20   0  16  63  63, Quantity: TEMPERATURE


 Slice File Information, Mesh     4

   Sampling Interval (s)             0.020

   1 Nodes:   0  20   0  16  23  23, Quantity: TEMPERATURE
   2 Nodes:   0  20   0  16  43  43, Quantity: TEMPERATURE
   3 Nodes:   0  20   0  16  63  63, Quantity: TEMPERATURE


 Slice File Information, Mesh     5

   Sampling Interval (s)             0.020

   1 Nodes:   0  20   5   5   0  72, Quantity: TEMPERATURE
   2 Nodes:   0  20  15  15   0  72, Quantity: TEMPERATURE
   3 Nodes:   0  20   0  16  23  23, Quantity: TEMPERATURE
   4 Nodes:   0  20   0  16  43  43, Quantity: TEMPERATURE
   5 Nodes:   0  20   0  16  63  63, Quantity: TEMPERATURE


 Slice File Information, Mesh     6

   Sampling Interval (s)             0.020

   1 Nodes:   0  20   5   5   0  72, Quantity: TEMPERATURE
   2 Nodes:   0  20  15  15   0  72, Quantity: TEMPERATURE
   3 Nodes:   0  20   0  16  23  23, Quantity: TEMPERATURE
   4 Nodes:   0  20   0  16  43  43, Quantity: TEMPERATURE
   5 Nodes:   0  20   0  16  63  63, Quantity: TEMPERATURE


 Slice File Information, Mesh     7

   Sampling Interval (s)             0.020

   1 Nodes:   0  20   5   5   0  72, Quantity: TEMPERATURE
   2 Nodes:   0  20  15  15   0  72, Quantity: TEMPERATURE
   3 Nodes:   0  20   0  16  23  23, Quantity: TEMPERATURE
   4 Nodes:   0  20   0  16  43  43, Quantity: TEMPERATURE
   5 Nodes:   0  20   0  16  63  63, Quantity: TEMPERATURE


 Slice File Information, Mesh     8

   Sampling Interval (s)             0.020

   1 Nodes:   0  20   5   5   0  72, Quantity: TEMPERATURE
   2 Nodes:   0  20  15  15   0  72, Quantity: TEMPERATURE
   3 Nodes:   0  20   0  16  23  23, Quantity: TEMPERATURE
   4 Nodes:   0  20   0  16  43  43, Quantity: TEMPERATURE
   5 Nodes:   0  20   0  16  63  63, Quantity: TEMPERATURE


 Slice File Information, Mesh     9

   Sampling Interval (s)             0.020

   1 Nodes:   0  20   9   9   0  72, Quantity: TEMPERATURE
   2 Nodes:   0  20   0  16  23  23, Quantity: TEMPERATURE
   3 Nodes:   0  20   0  16  43  43, Quantity: TEMPERATURE
   4 Nodes:   0  20   0  16  63  63, Quantity: TEMPERATURE


 Slice File Information, Mesh    10

   Sampling Interval (s)             0.020

   1 Nodes:   0  20   9   9   0  72, Quantity: TEMPERATURE
   2 Nodes:   0  20   0  16  23  23, Quantity: TEMPERATURE
   3 Nodes:   0  20   0  16  43  43, Quantity: TEMPERATURE
   4 Nodes:   0  20   0  16  63  63, Quantity: TEMPERATURE


 Slice File Information, Mesh    11

   Sampling Interval (s)             0.020

   1 Nodes:   0  20   9   9   0  72, Quantity: TEMPERATURE
   2 Nodes:   0  20   0  16  23  23, Quantity: TEMPERATURE
   3 Nodes:   0  20   0  16  43  43, Quantity: TEMPERATURE
   4 Nodes:   0  20   0  16  63  63, Quantity: TEMPERATURE


 Slice File Information, Mesh    12

   Sampling Interval (s)             0.020

   1 Nodes:   0  20   9   9   0  72, Quantity: TEMPERATURE
   2 Nodes:   0  20   0  16  23  23, Quantity: TEMPERATURE
   3 Nodes:   0  20   0  16  43  43, Quantity: TEMPERATURE
   4 Nodes:   0  20   0  16  63  63, Quantity: TEMPERATURE


 Slice File Information, Mesh    13

   Sampling Interval (s)             0.020

   1 Nodes:   0  20   3   3   0  72, Quantity: TEMPERATURE
   2 Nodes:   0  20  13  13   0  72, Quantity: TEMPERATURE
   3 Nodes:   0  20   0  16  23  23, Quantity: TEMPERATURE
   4 Nodes:   0  20   0  16  43  43, Quantity: TEMPERATURE
   5 Nodes:   0  20   0  16  63  63, Quantity: TEMPERATURE


 Slice File Information, Mesh    14

   Sampling Interval (s)             0.020

   1 Nodes:   0  20   3   3   0  72, Quantity: TEMPERATURE
   2 Nodes:   0  20  13  13   0  72, Quantity: TEMPERATURE
   3 Nodes:   0  20   0  16  23  23, Quantity: TEMPERATURE
   4 Nodes:   0  20   0  16  43  43, Quantity: TEMPERATURE
   5 Nodes:   0  20   0  16  63  63, Quantity: TEMPERATURE


 Slice File Information, Mesh    15

   Sampling Interval (s)             0.020

   1 Nodes:   0  20   3   3   0  72, Quantity: TEMPERATURE
   2 Nodes:   0  20  13  13   0  72, Quantity: TEMPERATURE
   3 Nodes:   0  20   0  16  23  23, Quantity: TEMPERATURE
   4 Nodes:   0  20   0  16  43  43, Quantity: TEMPERATURE
   5 Nodes:   0  20   0  16  63  63, Quantity: TEMPERATURE


 Slice File Information, Mesh    16

   Sampling Interval (s)             0.020

   1 Nodes:   0  20   3   3   0  72, Quantity: TEMPERATURE
   2 Nodes:   0  20  13  13   0  72, Quantity: TEMPERATURE
   3 Nodes:   0  20   0  16  23  23, Quantity: TEMPERATURE
   4 Nodes:   0  20   0  16  43  43, Quantity: TEMPERATURE
   5 Nodes:   0  20   0  16  63  63, Quantity: TEMPERATURE


 Slice File Information, Mesh    17

   Sampling Interval (s)             0.020

   1 Nodes:   0  20   0  16  23  23, Quantity: TEMPERATURE
   2 Nodes:   0  20   0  16  43  43, Quantity: TEMPERATURE
   3 Nodes:   0  20   0  16  63  63, Quantity: TEMPERATURE


 Slice File Information, Mesh    18

   Sampling Interval (s)             0.020

   1 Nodes:   0  20   0  16  23  23, Quantity: TEMPERATURE
   2 Nodes:   0  20   0  16  43  43, Quantity: TEMPERATURE
   3 Nodes:   0  20   0  16  63  63, Quantity: TEMPERATURE


 Slice File Information, Mesh    19

   Sampling Interval (s)             0.020

   1 Nodes:   0  20   0  16  23  23, Quantity: TEMPERATURE
   2 Nodes:   0  20   0  16  43  43, Quantity: TEMPERATURE
   3 Nodes:   0  20   0  16  63  63, Quantity: TEMPERATURE


 Slice File Information, Mesh    20

   Sampling Interval (s)             0.020

   1 Nodes:   0  20   0  16  23  23, Quantity: TEMPERATURE
   2 Nodes:   0  20   0  16  43  43, Quantity: TEMPERATURE
   3 Nodes:   0  20   0  16  63  63, Quantity: TEMPERATURE


 Slice File Information, Mesh    21

   Sampling Interval (s)             0.020

   1 Nodes:   0  20   0  16  23  23, Quantity: TEMPERATURE
   2 Nodes:   0  20   0  16  43  43, Quantity: TEMPERATURE
   3 Nodes:   0  20   0  16  63  63, Quantity: TEMPERATURE


 Slice File Information, Mesh    22

   Sampling Interval (s)             0.020

   1 Nodes:   0  20   0  16  23  23, Quantity: TEMPERATURE
   2 Nodes:   0  20   0  16  43  43, Quantity: TEMPERATURE
   3 Nodes:   0  20   0  16  63  63, Quantity: TEMPERATURE


 Slice File Information, Mesh    23

   Sampling Interval (s)             0.020

   1 Nodes:   0  20   0  16  23  23, Quantity: TEMPERATURE
   2 Nodes:   0  20   0  16  43  43, Quantity: TEMPERATURE
   3 Nodes:   0  20   0  16  63  63, Quantity: TEMPERATURE


 Slice File Information, Mesh    24

   Sampling Interval (s)             0.020

   1 Nodes:   0  20   0  16  23  23, Quantity: TEMPERATURE
   2 Nodes:   0  20   0  16  43  43, Quantity: TEMPERATURE
   3 Nodes:   0  20   0  16  63  63, Quantity: TEMPERATURE


 Boundary File Information

   Sampling Interval (s)             0.040

   1 Quantity: WALL TEMPERATURE
   2 Quantity: BACK WALL TEMPERATURE


 Radiation Model Information

   Number of control angles  104
   Time step increment         3
   Angle increment             5
   Theta band N_phi   Solid angle
     1:        4     0.120
     2:       12     0.114
     3:       16     0.127
     4:       20     0.120
     5:       20     0.120
     6:       16     0.127
     7:       12     0.114
     8:        4     0.120
   Using gray gas absorption.
   Mean beam length  0.100 m
 
 

 Run Time Diagnostics

       Time Step       1   November 30, 2020  14:46:51
       Step Size:    0.417E-01 s, Total Time:       0.04 s
       Pressure Iterations:      1
       Maximum Velocity Error:  0.50E-02 on Mesh  16 at (   2  17   3)
       Maximum Pressure Error:  0.12E-04 on Mesh   3 at (  13   1  72)
       ---------------------------------------------------------------
       Mesh    1
       Max CFL number:  0.16E-01 at (   5,   8,  19)
       Max divergence:  0.12E-05 at (   7,   5,  50)
       Min divergence: -0.11E-05 at (   4,   2,  42)
       Max VN number:   0.14E-01 at (   7,   5,  50)
       Mesh    2
       Max CFL number:  0.16E-01 at (   7,  13,  62)
       Max divergence:  0.12E-05 at (  14,   7,  39)
       Min divergence: -0.13E-05 at (  15,   8,  28)
       Max VN number:   0.14E-01 at (  11,   5,  50)
       Mesh    3
       Max CFL number:  0.16E-01 at (   7,   4,  55)
       Max divergence:  0.13E-05 at (   5,   4,   3)
       Min divergence: -0.13E-05 at (   4,   2,  65)
       Max VN number:   0.14E-01 at (   4,   8,   6)
       Mesh    4
       Max CFL number:  0.15E-01 at (  10,  15,   7)
       Max divergence:  0.12E-05 at (  13,   6,  16)
       Min divergence: -0.12E-05 at (   7,   2,  18)
       Max VN number:   0.13E-01 at (   2,   2,  37)
       Mesh    5
       Max CFL number:  0.16E-01 at (  13,   6,  56)
       Max divergence:  0.12E-05 at (   3,  14,  71)
       Min divergence: -0.11E-05 at (   4,  14,  38)
       Max VN number:   0.14E-01 at (  10,  11,  71)
       Mesh    6
       Max CFL number:  0.16E-01 at (   6,   6,  40)
       Max divergence:  0.13E-05 at (   3,  10,  70)
       Min divergence: -0.12E-05 at (   8,  12,  30)
       Max VN number:   0.14E-01 at (   2,  13,  60)
       Mesh    7
       Max CFL number:  0.16E-01 at (   7,  13,  71)
       Max divergence:  0.14E-05 at (   2,  14,  53)
       Min divergence: -0.12E-05 at (  11,  10,   5)
       Max VN number:   0.14E-01 at (   3,  13,  40)
       Mesh    8
       Max CFL number:  0.15E-01 at (  11,  10,  66)
       Max divergence:  0.13E-05 at (  11,   8,  57)
       Min divergence: -0.11E-05 at (   4,  12,  71)
       Max VN number:   0.14E-01 at (  15,   4,  52)
       Mesh    9
       Max CFL number:  0.16E-01 at (  13,  13,  25)
       Max divergence:  0.13E-05 at (   8,   2,  14)
       Min divergence: -0.12E-05 at (   5,   2,  29)
       Max VN number:   0.15E-01 at (  11,   5,  20)
       Mesh   10
       Max CFL number:  0.15E-01 at (  10,  11,  68)
       Max divergence:  0.13E-05 at (  16,  10,  18)
       Min divergence: -0.13E-05 at (  12,   8,  17)
       Max VN number:   0.14E-01 at (  11,  15,  40)
       Mesh   11
       Max CFL number:  0.15E-01 at (   9,   7,   9)
       Max divergence:  0.12E-05 at (   7,   8,   5)
       Min divergence: -0.13E-05 at (  17,   9,  18)
       Max VN number:   0.14E-01 at (  16,  10,  55)
       Mesh   12
       Max CFL number:  0.16E-01 at (   5,   5,  59)
       Max divergence:  0.13E-05 at (  11,  11,   3)
       Min divergence: -0.12E-05 at (  12,   8,  47)
       Max VN number:   0.14E-01 at (   9,   9,  19)
       Mesh   13
       Max CFL number:  0.15E-01 at (  15,  12,  58)
       Max divergence:  0.12E-05 at (  11,   5,  68)
       Min divergence: -0.13E-05 at (   5,  14,  29)
       Max VN number:   0.14E-01 at (   5,  14,  29)
       Mesh   14
       Max CFL number:  0.16E-01 at (  14,  16,  58)
       Max divergence:  0.12E-05 at (   2,  13,  17)
       Min divergence: -0.12E-05 at (  15,  10,  68)
       Max VN number:   0.14E-01 at (  14,   7,  59)
       Mesh   15
       Max CFL number:  0.16E-01 at (   8,  11,  60)
       Max divergence:  0.12E-05 at (   8,  11,  59)
       Min divergence: -0.12E-05 at (  16,  12,   9)
       Max VN number:   0.14E-01 at (  15,   2,  26)
       Mesh   16
       Max CFL number:  0.15E-01 at (  13,  12,  53)
       Max divergence:  0.12E-05 at (   6,   2,  38)
       Min divergence: -0.12E-05 at (  17,   9,  21)
       Max VN number:   0.14E-01 at (  14,   4,  64)
       Mesh   17
       Max CFL number:  0.16E-01 at (  17,   3,  56)
       Max divergence:  0.12E-05 at (   3,   2,  64)
       Min divergence: -0.12E-05 at (   9,   5,  39)
       Max VN number:   0.15E-01 at (  17,  12,  14)
       Mesh   18
       Max CFL number:  0.16E-01 at (  14,   2,  31)
       Max divergence:  0.13E-05 at (   2,  14,  36)
       Min divergence: -0.12E-05 at (   4,   3,  12)
       Max VN number:   0.14E-01 at (  13,  12,  31)
       Mesh   19
       Max CFL number:  0.15E-01 at (  17,   8,   6)
       Max divergence:  0.13E-05 at (   4,  15,  44)
       Min divergence: -0.12E-05 at (   2,  15,  41)
       Max VN number:   0.14E-01 at (  10,   3,  43)
       Mesh   20
       Max CFL number:  0.16E-01 at (  19,   6,  64)
       Max divergence:  0.12E-05 at (  19,   6,  64)
       Min divergence: -0.14E-05 at (   2,  10,   7)
       Max VN number:   0.14E-01 at (   2,  10,   7)
       Mesh   21
       Max CFL number:  0.16E-01 at (  17,   4,  16)
       Max divergence:  0.12E-05 at (  16,   4,  36)
       Min divergence: -0.11E-05 at (   9,  15,  46)
       Max VN number:   0.14E-01 at (   4,  15,   8)
       Mesh   22
       Max CFL number:  0.15E-01 at (   5,  13,  14)
       Max divergence:  0.13E-05 at (   7,  14,   8)
       Min divergence: -0.12E-05 at (  16,  10,  29)
       Max VN number:   0.14E-01 at (  16,  10,  29)
       Mesh   23
       Max CFL number:  0.16E-01 at (   2,  12,   3)
       Max divergence:  0.12E-05 at (  18,  11,  52)
       Min divergence: -0.13E-05 at (  13,   5,   5)
       Max VN number:   0.14E-01 at (  14,   7,  38)
       Mesh   24
       Max CFL number:  0.16E-01 at (   1,   7,  17)
       Max divergence:  0.12E-05 at (   6,  14,  67)
       Min divergence: -0.11E-05 at (   8,   2,  61)
       Max VN number:   0.14E-01 at (   7,  12,  31)
 
       Time Step       2   November 30, 2020  14:46:55
       Step Size:    0.417E-01 s, Total Time:       0.08 s
       Pressure Iterations:      1
       Maximum Velocity Error:  0.19E-02 on Mesh   6 at (   4  17  67)
       Maximum Pressure Error:  0.35E-03 on Mesh   5 at (  13   5  62)
       ---------------------------------------------------------------
       Mesh    1
       Max CFL number:  0.16E-01 at (   5,   8,  19)
       Max divergence:  0.12E-05 at (   7,   5,  50)
       Min divergence: -0.11E-05 at (   4,   2,  42)
       Max VN number:   0.14E-01 at (   7,   5,  50)
       Mesh    2
       Max CFL number:  0.16E-01 at (   7,  13,  62)
       Max divergence:  0.12E-05 at (  14,   7,  39)
       Min divergence: -0.13E-05 at (  15,   8,  28)
       Max VN number:   0.14E-01 at (  11,   5,  50)
       Mesh    3
       Max CFL number:  0.16E-01 at (   7,   4,  55)
       Max divergence:  0.13E-05 at (   5,   4,   3)
       Min divergence: -0.13E-05 at (   4,   2,  65)
       Max VN number:   0.14E-01 at (   4,   8,   6)
       Mesh    4
       Max CFL number:  0.15E-01 at (  10,  15,   7)
       Max divergence:  0.12E-05 at (  13,   6,  16)
       Min divergence: -0.12E-05 at (   7,   2,  18)
       Max VN number:   0.13E-01 at (   2,   2,  37)
       Mesh    5
       Max CFL number:  0.16E-01 at (  13,   6,  56)
       Max divergence:  0.12E-05 at (   3,  14,  71)
       Min divergence: -0.11E-05 at (   4,  14,  38)
       Max VN number:   0.14E-01 at (  10,  11,  71)
       Mesh    6
       Max CFL number:  0.16E-01 at (   6,   6,  40)
       Max divergence:  0.13E-05 at (   3,  10,  70)
       Min divergence: -0.12E-05 at (   8,  12,  30)
       Max VN number:   0.14E-01 at (   2,  13,  60)
       Mesh    7
       Max CFL number:  0.15E-01 at (   7,  13,  71)
       Max divergence:  0.14E-05 at (   2,  14,  53)
       Min divergence: -0.12E-05 at (  11,  10,   5)
       Max VN number:   0.14E-01 at (   3,  13,  40)
       Mesh    8
       Max CFL number:  0.15E-01 at (  11,  10,  66)
       Max divergence:  0.13E-05 at (  11,   8,  57)
       Min divergence: -0.11E-05 at (   4,  12,  71)
       Max VN number:   0.14E-01 at (  15,   4,  52)
       Mesh    9
       Max CFL number:  0.16E-01 at (  12,  13,  25)
       Max divergence:  0.13E-05 at (   8,   2,  14)
       Min divergence: -0.12E-05 at (   5,   2,  29)
       Max VN number:   0.15E-01 at (  11,   5,  20)
       Mesh   10
       Max CFL number:  0.15E-01 at (  10,  11,  68)
       Max divergence:  0.13E-05 at (  16,  10,  18)
       Min divergence: -0.13E-05 at (  12,   8,  17)
       Max VN number:   0.14E-01 at (  11,  15,  40)
       Mesh   11
       Max CFL number:  0.15E-01 at (   9,   7,   9)
       Max divergence:  0.12E-05 at (   7,   8,   5)
       Min divergence: -0.12E-05 at (  17,   9,  18)
       Max VN number:   0.14E-01 at (  16,  10,  55)
       Mesh   12
       Max CFL number:  0.16E-01 at (   5,   5,  59)
       Max divergence:  0.13E-05 at (  11,  11,   3)
       Min divergence: -0.12E-05 at (  12,   8,  47)
       Max VN number:   0.14E-01 at (   9,   9,  19)
       Mesh   13
       Max CFL number:  0.16E-01 at (  15,  13,  58)
       Max divergence:  0.12E-05 at (  11,   5,  68)
       Min divergence: -0.13E-05 at (   5,  14,  29)
       Max VN number:   0.14E-01 at (   5,  14,  29)
       Mesh   14
       Max CFL number:  0.16E-01 at (  14,  16,  58)
       Max divergence:  0.12E-05 at (   2,  13,  17)
       Min divergence: -0.12E-05 at (  15,  10,  68)
       Max VN number:   0.14E-01 at (  14,   7,  59)
       Mesh   15
       Max CFL number:  0.16E-01 at (   8,  11,  60)
       Max divergence:  0.12E-05 at (   8,  11,  59)
       Min divergence: -0.12E-05 at (  16,  12,   9)
       Max VN number:   0.14E-01 at (  15,   2,  26)
       Mesh   16
       Max CFL number:  0.15E-01 at (  13,  12,  53)
       Max divergence:  0.12E-05 at (   6,   2,  38)
       Min divergence: -0.12E-05 at (  17,   9,  21)
       Max VN number:   0.14E-01 at (  14,   4,  64)
       Mesh   17
       Max CFL number:  0.16E-01 at (  17,   3,  56)
       Max divergence:  0.12E-05 at (  15,  10,  68)
       Min divergence: -0.12E-05 at (   9,   5,  39)
       Max VN number:   0.15E-01 at (  17,  12,  14)
       Mesh   18
       Max CFL number:  0.16E-01 at (  14,   2,  31)
       Max divergence:  0.12E-05 at (   2,  14,  36)
       Min divergence: -0.12E-05 at (   4,   3,  12)
       Max VN number:   0.14E-01 at (  13,  12,  31)
       Mesh   19
       Max CFL number:  0.16E-01 at (   4,   3,  10)
       Max divergence:  0.13E-05 at (   4,  15,  44)
       Min divergence: -0.12E-05 at (   2,  15,  41)
       Max VN number:   0.14E-01 at (  10,   3,  43)
       Mesh   20
       Max CFL number:  0.15E-01 at (  19,   6,  64)
       Max divergence:  0.12E-05 at (  19,   6,  64)
       Min divergence: -0.14E-05 at (   2,  10,   7)
       Max VN number:   0.14E-01 at (   2,  10,   7)
       Mesh   21
       Max CFL number:  0.16E-01 at (  10,   7,  65)
       Max divergence:  0.12E-05 at (  16,   4,  36)
       Min divergence: -0.11E-05 at (   9,  15,  46)
       Max VN number:   0.14E-01 at (   4,  15,   8)
       Mesh   22
       Max CFL number:  0.15E-01 at (   5,  13,  14)
       Max divergence:  0.13E-05 at (   7,  14,   8)
       Min divergence: -0.12E-05 at (  16,  10,  29)
       Max VN number:   0.14E-01 at (  16,  10,  29)
       Mesh   23
       Max CFL number:  0.16E-01 at (   2,  12,   3)
       Max divergence:  0.12E-05 at (  18,  11,  52)
       Min divergence: -0.13E-05 at (  13,   5,   5)
       Max VN number:   0.14E-01 at (  14,   7,  38)
       Mesh   24
       Max CFL number:  0.16E-01 at (   2,   7,  17)
       Max divergence:  0.12E-05 at (   6,  14,  67)
       Min divergence: -0.11E-05 at (   4,   8,  39)
       Max VN number:   0.14E-01 at (   7,  12,  31)
 
       Time Step       3   November 30, 2020  14:46:57
       Step Size:    0.417E-01 s, Total Time:       0.12 s
       Pressure Iterations:      1
       Maximum Velocity Error:  0.26E-02 on Mesh  16 at (   2  17   3)
       Maximum Pressure Error:  0.13E-03 on Mesh   5 at (  13   5  62)
       ---------------------------------------------------------------
       Mesh    1
       Max CFL number:  0.15E-01 at (   5,   8,  19)
       Max divergence:  0.12E-05 at (   7,   5,  50)
       Min divergence: -0.11E-05 at (   4,   2,  42)
       Max VN number:   0.14E-01 at (   7,   5,  50)
       Mesh    2
       Max CFL number:  0.16E-01 at (   7,  13,  62)
       Max divergence:  0.12E-05 at (  14,   7,  39)
       Min divergence: -0.13E-05 at (  15,   8,  28)
       Max VN number:   0.14E-01 at (  11,   5,  50)
       Mesh    3
       Max CFL number:  0.16E-01 at (   7,   4,  55)
       Max divergence:  0.13E-05 at (   5,   4,   3)
       Min divergence: -0.13E-05 at (   4,   2,  65)
       Max VN number:   0.14E-01 at (   4,   8,   6)
       Mesh    4
       Max CFL number:  0.15E-01 at (  10,  15,   7)
       Max divergence:  0.11E-05 at (  13,   6,  16)
       Min divergence: -0.12E-05 at (   7,   2,  18)
       Max VN number:   0.13E-01 at (   2,   2,  37)
       Mesh    5
       Max CFL number:  0.16E-01 at (  13,   6,  56)
       Max divergence:  0.12E-05 at (   3,  14,  71)
       Min divergence: -0.11E-05 at (   4,  14,  38)
       Max VN number:   0.14E-01 at (  10,  11,  71)
       Mesh    6
       Max CFL number:  0.16E-01 at (   6,   6,  40)
       Max divergence:  0.13E-05 at (   3,  10,  70)
       Min divergence: -0.12E-05 at (   8,  12,  30)
       Max VN number:   0.14E-01 at (   2,  13,  60)
       Mesh    7
       Max CFL number:  0.15E-01 at (   7,  13,  71)
       Max divergence:  0.14E-05 at (   2,  14,  53)
       Min divergence: -0.12E-05 at (  11,  10,   5)
       Max VN number:   0.14E-01 at (   3,  13,  40)
       Mesh    8
       Max CFL number:  0.15E-01 at (  11,  10,  66)
       Max divergence:  0.13E-05 at (  11,   8,  57)
       Min divergence: -0.11E-05 at (   4,  12,  71)
       Max VN number:   0.14E-01 at (  19,   2,  44)
       Mesh    9
       Max CFL number:  0.16E-01 at (  12,  13,  25)
       Max divergence:  0.13E-05 at (   8,   2,  14)
       Min divergence: -0.12E-05 at (   5,   2,  29)
       Max VN number:   0.15E-01 at (  11,   5,  20)
       Mesh   10
       Max CFL number:  0.15E-01 at (  10,  11,  68)
       Max divergence:  0.13E-05 at (  16,  10,  18)
       Min divergence: -0.13E-05 at (  12,   8,  17)
       Max VN number:   0.14E-01 at (  11,  15,  40)
       Mesh   11
       Max CFL number:  0.15E-01 at (   9,   7,   9)
       Max divergence:  0.12E-05 at (   7,   8,   5)
       Min divergence: -0.12E-05 at (  17,   9,  18)
       Max VN number:   0.14E-01 at (  16,  10,  55)
       Mesh   12
       Max CFL number:  0.15E-01 at (   5,   5,  59)
       Max divergence:  0.13E-05 at (  11,  11,   3)
       Min divergence: -0.12E-05 at (  12,   8,  47)
       Max VN number:   0.14E-01 at (   9,   9,  19)
       Mesh   13
       Max CFL number:  0.16E-01 at (  15,  13,  58)
       Max divergence:  0.12E-05 at (  11,   5,  68)
       Min divergence: -0.13E-05 at (   5,  14,  29)
       Max VN number:   0.14E-01 at (   5,  14,  29)
       Mesh   14
       Max CFL number:  0.15E-01 at (  14,  16,  58)
       Max divergence:  0.12E-05 at (   2,  13,  17)
       Min divergence: -0.12E-05 at (  15,  10,  68)
       Max VN number:   0.14E-01 at (  14,   7,  59)
       Mesh   15
       Max CFL number:  0.16E-01 at (   8,  11,  60)
       Max divergence:  0.12E-05 at (   8,  11,  59)
       Min divergence: -0.12E-05 at (  16,  12,   9)
       Max VN number:   0.14E-01 at (  15,   2,  26)
       Mesh   16
       Max CFL number:  0.15E-01 at (  13,  12,  53)
       Max divergence:  0.12E-05 at (   6,   2,  38)
       Min divergence: -0.12E-05 at (  17,   9,  21)
       Max VN number:   0.14E-01 at (  14,   4,  64)
       Mesh   17
       Max CFL number:  0.16E-01 at (  17,   3,  56)
       Max divergence:  0.12E-05 at (  15,  10,  68)
       Min divergence: -0.12E-05 at (   9,   5,  39)
       Max VN number:   0.15E-01 at (  17,  12,  14)
       Mesh   18
       Max CFL number:  0.16E-01 at (  14,   2,  31)
       Max divergence:  0.13E-05 at (   2,  14,  36)
       Min divergence: -0.12E-05 at (   4,   3,  12)
       Max VN number:   0.14E-01 at (  13,  12,  31)
       Mesh   19
       Max CFL number:  0.16E-01 at (   4,   3,  10)
       Max divergence:  0.13E-05 at (   4,  15,  44)
       Min divergence: -0.12E-05 at (   2,  15,  41)
       Max VN number:   0.14E-01 at (  10,   3,  43)
       Mesh   20
       Max CFL number:  0.15E-01 at (  19,   6,  64)
       Max divergence:  0.12E-05 at (  19,   6,  64)
       Min divergence: -0.13E-05 at (   2,  10,   7)
       Max VN number:   0.14E-01 at (   2,  10,   7)
       Mesh   21
       Max CFL number:  0.16E-01 at (  10,   7,  65)
       Max divergence:  0.13E-05 at (  16,   4,  36)
       Min divergence: -0.11E-05 at (   9,  15,  46)
       Max VN number:   0.14E-01 at (   4,  15,   8)
       Mesh   22
       Max CFL number:  0.15E-01 at (   5,  13,  14)
       Max divergence:  0.13E-05 at (   7,  14,   8)
       Min divergence: -0.12E-05 at (  16,  10,  29)
       Max VN number:   0.14E-01 at (  16,  10,  29)
       Mesh   23
       Max CFL number:  0.16E-01 at (   2,  12,   3)
       Max divergence:  0.12E-05 at (  18,  11,  52)
       Min divergence: -0.13E-05 at (  13,   5,   5)
       Max VN number:   0.14E-01 at (  14,   7,  38)
       Mesh   24
       Max CFL number:  0.16E-01 at (   2,   7,  17)
       Max divergence:  0.12E-05 at (   6,  14,  67)
       Min divergence: -0.11E-05 at (   4,   8,  39)
       Max VN number:   0.14E-01 at (   7,  12,  31)
 
       Time Step       4   November 30, 2020  14:47:00
       Step Size:    0.417E-01 s, Total Time:       0.17 s
       Pressure Iterations:      1
       Maximum Velocity Error:  0.15E-02 on Mesh  20 at (   2   0   3)
       Maximum Pressure Error:  0.13E-03 on Mesh   7 at (   8   5  62)
       ---------------------------------------------------------------
       Mesh    1
       Max CFL number:  0.15E-01 at (   5,   8,  19)
       Max divergence:  0.12E-05 at (   7,   5,  50)
       Min divergence: -0.11E-05 at (   4,   2,  42)
       Max VN number:   0.14E-01 at (   7,   5,  50)
       Mesh    2
       Max CFL number:  0.16E-01 at (   7,  13,  62)
       Max divergence:  0.12E-05 at (  14,   7,  39)
       Min divergence: -0.13E-05 at (  15,   8,  28)
       Max VN number:   0.14E-01 at (  11,   5,  50)
       Mesh    3
       Max CFL number:  0.16E-01 at (   7,   4,  55)
       Max divergence:  0.13E-05 at (   5,   4,   3)
       Min divergence: -0.13E-05 at (   4,   2,  65)
       Max VN number:   0.14E-01 at (   4,   8,   6)
       Mesh    4
       Max CFL number:  0.15E-01 at (  10,  15,   7)
       Max divergence:  0.11E-05 at (  13,   6,  16)
       Min divergence: -0.12E-05 at (   7,   2,  18)
       Max VN number:   0.13E-01 at (   2,   2,  37)
       Mesh    5
       Max CFL number:  0.16E-01 at (  13,   6,  56)
       Max divergence:  0.12E-05 at (   3,  14,  71)
       Min divergence: -0.11E-05 at (   4,  14,  38)
       Max VN number:   0.14E-01 at (  10,  11,  71)
       Mesh    6
       Max CFL number:  0.16E-01 at (   6,   6,  40)
       Max divergence:  0.13E-05 at (   3,  10,  70)
       Min divergence: -0.12E-05 at (   8,  12,  30)
       Max VN number:   0.14E-01 at (   2,  13,  60)
       Mesh    7
       Max CFL number:  0.15E-01 at (   7,  13,  71)
       Max divergence:  0.14E-05 at (   2,  14,  53)
       Min divergence: -0.12E-05 at (  11,  10,   5)
       Max VN number:   0.14E-01 at (   3,  13,  40)
       Mesh    8
       Max CFL number:  0.15E-01 at (  11,  10,  66)
       Max divergence:  0.13E-05 at (  11,   8,  57)
       Min divergence: -0.11E-05 at (   4,  12,  71)
       Max VN number:   0.14E-01 at (  19,   2,  44)
       Mesh    9
       Max CFL number:  0.16E-01 at (  12,  13,  25)
       Max divergence:  0.13E-05 at (   8,   2,  14)
       Min divergence: -0.12E-05 at (   5,   2,  29)
       Max VN number:   0.15E-01 at (  11,   5,  20)
       Mesh   10
       Max CFL number:  0.15E-01 at (  10,  11,  68)
       Max divergence:  0.13E-05 at (  16,  10,  18)
       Min divergence: -0.13E-05 at (  12,   8,  17)
       Max VN number:   0.14E-01 at (  11,  15,  40)
       Mesh   11
       Max CFL number:  0.15E-01 at (   9,   7,   9)
       Max divergence:  0.12E-05 at (   7,   8,   5)
       Min divergence: -0.12E-05 at (  17,   9,  18)
       Max VN number:   0.14E-01 at (  16,  10,  55)
       Mesh   12
       Max CFL number:  0.15E-01 at (   5,   5,  59)
       Max divergence:  0.13E-05 at (  11,  11,   3)
       Min divergence: -0.12E-05 at (  12,   8,  47)
       Max VN number:   0.14E-01 at (   9,   9,  19)
       Mesh   13
       Max CFL number:  0.16E-01 at (  15,  13,  58)
       Max divergence:  0.12E-05 at (  11,   5,  68)
       Min divergence: -0.12E-05 at (   5,  14,  29)
       Max VN number:   0.14E-01 at (   5,  14,  29)
       Mesh   14
       Max CFL number:  0.15E-01 at (  14,  16,  58)
       Max divergence:  0.12E-05 at (   2,  13,  17)
       Min divergence: -0.12E-05 at (  15,  10,  68)
       Max VN number:   0.14E-01 at (  14,   7,  59)
       Mesh   15
       Max CFL number:  0.16E-01 at (   8,  11,  60)
       Max divergence:  0.12E-05 at (   8,  11,  59)
       Min divergence: -0.12E-05 at (  16,  12,   9)
       Max VN number:   0.14E-01 at (  15,   2,  26)
       Mesh   16
       Max CFL number:  0.15E-01 at (  13,  12,  53)
       Max divergence:  0.12E-05 at (   6,   2,  38)
       Min divergence: -0.12E-05 at (  17,   9,  21)
       Max VN number:   0.14E-01 at (  14,   4,  64)
       Mesh   17
       Max CFL number:  0.15E-01 at (   6,   8,  20)
       Max divergence:  0.12E-05 at (  15,  10,  68)
       Min divergence: -0.12E-05 at (   9,   5,  39)
       Max VN number:   0.15E-01 at (  17,  12,  14)
       Mesh   18
       Max CFL number:  0.15E-01 at (  14,   2,  31)
       Max divergence:  0.13E-05 at (   2,  14,  36)
       Min divergence: -0.12E-05 at (   4,   3,  12)
       Max VN number:   0.14E-01 at (  13,  12,  31)
       Mesh   19
       Max CFL number:  0.15E-01 at (   4,   3,  10)
       Max divergence:  0.13E-05 at (   4,  15,  44)
       Min divergence: -0.12E-05 at (   2,  15,  41)
       Max VN number:   0.14E-01 at (  10,   3,  43)
       Mesh   20
       Max CFL number:  0.15E-01 at (  19,   6,  64)
       Max divergence:  0.12E-05 at (  19,   6,  64)
       Min divergence: -0.13E-05 at (   2,  10,   7)
       Max VN number:   0.13E-01 at (   2,  10,   7)
       Mesh   21
       Max CFL number:  0.16E-01 at (  10,   7,  65)
       Max divergence:  0.13E-05 at (  16,   4,  36)
       Min divergence: -0.11E-05 at (   9,  15,  46)
       Max VN number:   0.14E-01 at (   4,  15,   8)
       Mesh   22
       Max CFL number:  0.15E-01 at (   5,  13,  14)
       Max divergence:  0.13E-05 at (   7,  14,   8)
       Min divergence: -0.12E-05 at (  16,  10,  29)
       Max VN number:   0.14E-01 at (  16,  10,  29)
       Mesh   23
       Max CFL number:  0.16E-01 at (   2,  12,   3)
       Max divergence:  0.12E-05 at (  18,  11,  52)
       Min divergence: -0.13E-05 at (  13,   5,   5)
       Max VN number:   0.14E-01 at (  14,   7,  38)
       Mesh   24
       Max CFL number:  0.16E-01 at (   2,   7,  17)
       Max divergence:  0.12E-05 at (   6,  14,  67)
       Min divergence: -0.11E-05 at (   8,   2,  61)
       Max VN number:   0.14E-01 at (   7,  12,  31)
 
       Time Step       5   November 30, 2020  14:47:03
       Step Size:    0.417E-01 s, Total Time:       0.21 s
       Pressure Iterations:      1
       Maximum Velocity Error:  0.83E-03 on Mesh  22 at (  21   3  67)
       Maximum Pressure Error:  0.18E-03 on Mesh   5 at (  13   5  62)
       ---------------------------------------------------------------
       Mesh    1
       Max CFL number:  0.15E-01 at (   5,   8,  19)
       Max divergence:  0.12E-05 at (  13,   3,  48)
       Min divergence: -0.11E-05 at (   4,   2,  42)
       Max VN number:   0.14E-01 at (   7,   5,  50)
       Mesh    2
       Max CFL number:  0.16E-01 at (   7,  13,  62)
       Max divergence:  0.12E-05 at (  14,   7,  39)
       Min divergence: -0.13E-05 at (  15,   8,  28)
       Max VN number:   0.13E-01 at (  11,   5,  50)
       Mesh    3
       Max CFL number:  0.16E-01 at (   7,   4,  55)
       Max divergence:  0.13E-05 at (   5,   4,   3)
       Min divergence: -0.13E-05 at (   4,   2,  65)
       Max VN number:   0.14E-01 at (   4,   8,   6)
       Mesh    4
       Max CFL number:  0.15E-01 at (  10,  15,   7)
       Max divergence:  0.11E-05 at (  13,   6,  16)
       Min divergence: -0.12E-05 at (   7,   2,  18)
       Max VN number:   0.13E-01 at (   2,   2,  37)
       Mesh    5
       Max CFL number:  0.16E-01 at (  13,   6,  56)
       Max divergence:  0.12E-05 at (   3,  14,  71)
       Min divergence: -0.11E-05 at (   4,  14,  38)
       Max VN number:   0.14E-01 at (  10,  11,  71)
       Mesh    6
       Max CFL number:  0.16E-01 at (   6,   6,  40)
       Max divergence:  0.13E-05 at (   3,  10,  70)
       Min divergence: -0.12E-05 at (   8,  12,  30)
       Max VN number:   0.14E-01 at (   2,  13,  60)
       Mesh    7
       Max CFL number:  0.15E-01 at (   7,  13,  71)
       Max divergence:  0.14E-05 at (   2,  14,  53)
       Min divergence: -0.12E-05 at (   2,  13,   9)
       Max VN number:   0.14E-01 at (   3,  13,  40)
       Mesh    8
       Max CFL number:  0.15E-01 at (  11,  10,  66)
       Max divergence:  0.13E-05 at (  11,   8,  57)
       Min divergence: -0.11E-05 at (   4,  12,  71)
       Max VN number:   0.14E-01 at (  19,   2,  44)
       Mesh    9
       Max CFL number:  0.16E-01 at (  12,  13,  25)
       Max divergence:  0.13E-05 at (   8,   2,  14)
       Min divergence: -0.12E-05 at (   5,   2,  29)
       Max VN number:   0.15E-01 at (  11,   5,  20)
       Mesh   10
       Max CFL number:  0.15E-01 at (  10,  11,  68)
       Max divergence:  0.13E-05 at (  16,  10,  18)
       Min divergence: -0.13E-05 at (  12,   8,  17)
       Max VN number:   0.14E-01 at (  11,  15,  40)
       Mesh   11
       Max CFL number:  0.15E-01 at (  19,  11,  46)
       Max divergence:  0.12E-05 at (   7,   8,   5)
       Min divergence: -0.12E-05 at (  17,   9,  18)
       Max VN number:   0.14E-01 at (  16,  10,  55)
       Mesh   12
       Max CFL number:  0.15E-01 at (   5,   5,  59)
       Max divergence:  0.13E-05 at (  11,  11,   3)
       Min divergence: -0.12E-05 at (  12,   8,  47)
       Max VN number:   0.14E-01 at (   9,   9,  19)
       Mesh   13
       Max CFL number:  0.15E-01 at (  15,  13,  58)
       Max divergence:  0.12E-05 at (  11,   5,  68)
       Min divergence: -0.12E-05 at (   5,  14,  29)
       Max VN number:   0.13E-01 at (   5,  14,  29)
       Mesh   14
       Max CFL number:  0.15E-01 at (  14,  16,  58)
       Max divergence:  0.12E-05 at (   2,  13,  17)
       Min divergence: -0.12E-05 at (  15,  10,  68)
       Max VN number:   0.14E-01 at (  14,   7,  59)
       Mesh   15
       Max CFL number:  0.16E-01 at (   8,  11,  60)
       Max divergence:  0.12E-05 at (   8,  11,  59)
       Min divergence: -0.12E-05 at (   7,   2,  17)
       Max VN number:   0.14E-01 at (  15,   2,  26)
       Mesh   16
       Max CFL number:  0.15E-01 at (  20,  11,  46)
       Max divergence:  0.12E-05 at (   6,   2,  38)
       Min divergence: -0.12E-05 at (  17,   9,  21)
       Max VN number:   0.14E-01 at (  14,   4,  64)
       Mesh   17
       Max CFL number:  0.15E-01 at (   6,   8,  20)
       Max divergence:  0.12E-05 at (  15,  10,  68)
       Min divergence: -0.12E-05 at (   9,   5,  39)
       Max VN number:   0.15E-01 at (  17,  12,  14)
       Mesh   18
       Max CFL number:  0.15E-01 at (  14,   2,  31)
       Max divergence:  0.13E-05 at (   2,  14,  36)
       Min divergence: -0.12E-05 at (   4,   3,  12)
       Max VN number:   0.13E-01 at (  13,  12,  31)
       Mesh   19
       Max CFL number:  0.15E-01 at (   4,   3,  10)
       Max divergence:  0.13E-05 at (   4,  15,  44)
       Min divergence: -0.12E-05 at (  11,  11,   6)
       Max VN number:   0.14E-01 at (  10,   3,  43)
       Mesh   20
       Max CFL number:  0.15E-01 at (  19,   6,  64)
       Max divergence:  0.11E-05 at (  10,   5,  40)
       Min divergence: -0.13E-05 at (   2,  10,   7)
       Max VN number:   0.13E-01 at (   2,  10,   7)
       Mesh   21
       Max CFL number:  0.15E-01 at (  10,   7,  65)
       Max divergence:  0.13E-05 at (  16,   4,  36)
       Min divergence: -0.11E-05 at (   9,  15,  46)
       Max VN number:   0.14E-01 at (   4,  15,   8)
       Mesh   22
       Max CFL number:  0.15E-01 at (   5,  13,  14)
       Max divergence:  0.13E-05 at (   7,  14,   8)
       Min divergence: -0.12E-05 at (  16,  10,  29)
       Max VN number:   0.14E-01 at (  16,  10,  29)
       Mesh   23
       Max CFL number:  0.16E-01 at (   2,  12,   3)
       Max divergence:  0.12E-05 at (  18,  11,  52)
       Min divergence: -0.13E-05 at (  13,   5,   5)
       Max VN number:   0.14E-01 at (  14,   7,  38)
       Mesh   24
       Max CFL number:  0.16E-01 at (   2,   7,  17)
       Max divergence:  0.12E-05 at (   6,  14,  67)
       Min divergence: -0.11E-05 at (   8,   2,  61)
       Max VN number:   0.13E-01 at (   7,  12,  31)
 
       Time Step       6   November 30, 2020  14:47:05
       Step Size:    0.417E-01 s, Total Time:       0.25 s
       Pressure Iterations:      1
       Maximum Velocity Error:  0.65E-03 on Mesh   6 at (   4  17  67)
       Maximum Pressure Error:  0.18E-03 on Mesh   5 at (  13   5  62)
       ---------------------------------------------------------------
       Mesh    1
       Max CFL number:  0.15E-01 at (   5,   8,  19)
       Max divergence:  0.12E-05 at (  13,   3,  48)
       Min divergence: -0.11E-05 at (   4,   2,  42)
       Max VN number:   0.14E-01 at (   7,   5,  50)
       Mesh    2
       Max CFL number:  0.16E-01 at (   7,  13,  62)
       Max divergence:  0.12E-05 at (  14,   7,  39)
       Min divergence: -0.13E-05 at (  15,   8,  28)
       Max VN number:   0.13E-01 at (  11,   5,  50)
       Mesh    3
       Max CFL number:  0.16E-01 at (   7,   4,  55)
       Max divergence:  0.13E-05 at (   5,   4,   3)
       Min divergence: -0.13E-05 at (   4,   2,  65)
       Max VN number:   0.14E-01 at (   4,   8,   6)
       Mesh    4
       Max CFL number:  0.15E-01 at (  10,  15,   7)
       Max divergence:  0.11E-05 at (  13,   6,  16)
       Min divergence: -0.12E-05 at (   7,   2,  18)
       Max VN number:   0.13E-01 at (   2,   2,  37)
       Mesh    5
       Max CFL number:  0.15E-01 at (  13,   6,  56)
       Max divergence:  0.12E-05 at (   3,  14,  71)
       Min divergence: -0.11E-05 at (   4,  14,  38)
       Max VN number:   0.14E-01 at (  10,  11,  71)
       Mesh    6
       Max CFL number:  0.16E-01 at (   6,   6,  40)
       Max divergence:  0.13E-05 at (   3,  10,  70)
       Min divergence: -0.12E-05 at (   8,  12,  30)
       Max VN number:   0.14E-01 at (   2,  13,  60)
       Mesh    7
       Max CFL number:  0.15E-01 at (   7,  13,  71)
       Max divergence:  0.14E-05 at (   2,  14,  53)
       Min divergence: -0.12E-05 at (   2,  13,   9)
       Max VN number:   0.14E-01 at (   3,  13,  40)
       Mesh    8
       Max CFL number:  0.15E-01 at (  11,  10,  66)
       Max divergence:  0.13E-05 at (  11,   8,  57)
       Min divergence: -0.11E-05 at (   4,  12,  71)
       Max VN number:   0.14E-01 at (  19,   2,  44)
       Mesh    9
       Max CFL number:  0.16E-01 at (  12,  13,  25)
       Max divergence:  0.13E-05 at (   8,   2,  14)
       Min divergence: -0.13E-05 at (   5,   2,  29)
       Max VN number:   0.15E-01 at (  11,   5,  20)
       Mesh   10
       Max CFL number:  0.15E-01 at (  10,  11,  68)
       Max divergence:  0.13E-05 at (  16,  10,  18)
       Min divergence: -0.13E-05 at (  12,   8,  17)
       Max VN number:   0.14E-01 at (  11,  15,  40)
       Mesh   11
       Max CFL number:  0.15E-01 at (  19,  11,  46)
       Max divergence:  0.12E-05 at (   7,   8,   5)
       Min divergence: -0.12E-05 at (  17,   9,  18)
       Max VN number:   0.14E-01 at (  16,  10,  55)
       Mesh   12
       Max CFL number:  0.15E-01 at (   5,   5,  59)
       Max divergence:  0.13E-05 at (  11,  11,   3)
       Min divergence: -0.12E-05 at (  14,   5,  13)
       Max VN number:   0.14E-01 at (   9,   9,  19)
       Mesh   13
       Max CFL number:  0.15E-01 at (  15,  13,  58)
       Max divergence:  0.12E-05 at (  11,   5,  68)
       Min divergence: -0.12E-05 at (   5,  14,  29)
       Max VN number:   0.13E-01 at (   5,  14,  29)
       Mesh   14
       Max CFL number:  0.15E-01 at (  14,  16,  58)
       Max divergence:  0.12E-05 at (   2,  13,  17)
       Min divergence: -0.13E-05 at (  15,  10,  68)
       Max VN number:   0.14E-01 at (  14,   7,  59)
       Mesh   15
       Max CFL number:  0.15E-01 at (   8,  11,  60)
       Max divergence:  0.12E-05 at (   8,  11,  59)
       Min divergence: -0.12E-05 at (   7,   2,  17)
       Max VN number:   0.14E-01 at (  15,   2,  26)
       Mesh   16
       Max CFL number:  0.15E-01 at (  19,  11,  46)
       Max divergence:  0.12E-05 at (   6,   2,  38)
       Min divergence: -0.12E-05 at (  17,   9,  21)
       Max VN number:   0.14E-01 at (  14,   4,  64)
       Mesh   17
       Max CFL number:  0.15E-01 at (   6,   8,  20)
       Max divergence:  0.12E-05 at (  15,  10,  68)
       Min divergence: -0.12E-05 at (   9,   5,  39)
       Max VN number:   0.14E-01 at (  17,  12,  14)
       Mesh   18
       Max CFL number:  0.15E-01 at (   4,  15,  32)
       Max divergence:  0.13E-05 at (   2,  14,  36)
       Min divergence: -0.12E-05 at (   4,   3,  12)
       Max VN number:   0.13E-01 at (  13,  12,  31)
       Mesh   19
       Max CFL number:  0.15E-01 at (   4,   3,  10)
       Max divergence:  0.13E-05 at (   4,  15,  44)
       Min divergence: -0.12E-05 at (  11,  11,   6)
       Max VN number:   0.14E-01 at (  10,   3,  43)
       Mesh   20
       Max CFL number:  0.15E-01 at (  19,   6,  64)
       Max divergence:  0.12E-05 at (  10,   5,  40)
       Min divergence: -0.13E-05 at (   2,  10,   7)
       Max VN number:   0.13E-01 at (  13,  12,  61)
       Mesh   21
       Max CFL number:  0.15E-01 at (  10,   7,  65)
       Max divergence:  0.13E-05 at (  16,   4,  36)
       Min divergence: -0.11E-05 at (   9,  15,  46)
       Max VN number:   0.14E-01 at (   4,  15,   8)
       Mesh   22
       Max CFL number:  0.15E-01 at (   5,  13,  14)
       Max divergence:  0.13E-05 at (   7,  14,   8)
       Min divergence: -0.12E-05 at (  16,  10,  29)
       Max VN number:   0.14E-01 at (  16,  10,  29)
       Mesh   23
       Max CFL number:  0.16E-01 at (   2,  12,   3)
       Max divergence:  0.12E-05 at (  18,  11,  52)
       Min divergence: -0.13E-05 at (  13,   5,   5)
       Max VN number:   0.14E-01 at (  14,   7,  38)
       Mesh   24
       Max CFL number:  0.15E-01 at (   2,   7,  17)
       Max divergence:  0.12E-05 at (   6,  14,  67)
       Min divergence: -0.11E-05 at (   8,   2,  61)
       Max VN number:   0.13E-01 at (   7,  12,  31)
 
       Time Step       7   November 30, 2020  14:47:08
       Step Size:    0.417E-01 s, Total Time:       0.29 s
       Pressure Iterations:      1
       Maximum Velocity Error:  0.56E-03 on Mesh  13 at (  13  17   3)
       Maximum Pressure Error:  0.14E-03 on Mesh   5 at (  13   5  62)
       ---------------------------------------------------------------
       Mesh    1
       Max CFL number:  0.15E-01 at (   5,   8,  19)
       Max divergence:  0.12E-05 at (  13,   3,  48)
       Min divergence: -0.11E-05 at (  15,  11,  40)
       Max VN number:   0.14E-01 at (   7,   5,  50)
       Mesh    2
       Max CFL number:  0.16E-01 at (   7,  13,  62)
       Max divergence:  0.12E-05 at (  14,   7,  39)
       Min divergence: -0.13E-05 at (  15,   8,  28)
       Max VN number:   0.13E-01 at (  11,   5,  50)
       Mesh    3
       Max CFL number:  0.16E-01 at (   7,   4,  55)
       Max divergence:  0.13E-05 at (   5,   4,   3)
       Min divergence: -0.13E-05 at (   4,   2,  65)
       Max VN number:   0.14E-01 at (   4,   8,   6)
       Mesh    4
       Max CFL number:  0.15E-01 at (  10,  15,   7)
       Max divergence:  0.11E-05 at (  18,   4,  62)
       Min divergence: -0.12E-05 at (   7,   2,  18)
       Max VN number:   0.13E-01 at (   2,   2,  37)
       Mesh    5
       Max CFL number:  0.15E-01 at (  13,   6,  56)
       Max divergence:  0.12E-05 at (   3,  14,  71)
       Min divergence: -0.11E-05 at (   4,   3,  44)
       Max VN number:   0.13E-01 at (  10,  11,  71)
       Mesh    6
       Max CFL number:  0.16E-01 at (   6,   6,  40)
       Max divergence:  0.13E-05 at (   3,  10,  70)
       Min divergence: -0.12E-05 at (   8,  12,  30)
       Max VN number:   0.14E-01 at (   2,  13,  60)
       Mesh    7
       Max CFL number:  0.15E-01 at (   7,  13,  71)
       Max divergence:  0.14E-05 at (   2,  14,  53)
       Min divergence: -0.12E-05 at (   2,  13,   9)
       Max VN number:   0.14E-01 at (   3,  13,  40)
       Mesh    8
       Max CFL number:  0.15E-01 at (  11,  10,  66)
       Max divergence:  0.13E-05 at (  11,   8,  57)
       Min divergence: -0.11E-05 at (   4,  12,  71)
       Max VN number:   0.14E-01 at (  19,   2,  44)
       Mesh    9
       Max CFL number:  0.16E-01 at (  12,  13,  25)
       Max divergence:  0.13E-05 at (   8,   2,  14)
       Min divergence: -0.13E-05 at (   5,   2,  29)
       Max VN number:   0.14E-01 at (  11,   5,  20)
       Mesh   10
       Max CFL number:  0.15E-01 at (  10,  11,  68)
       Max divergence:  0.13E-05 at (  16,  10,  18)
       Min divergence: -0.13E-05 at (  12,   8,  17)
       Max VN number:   0.13E-01 at (  11,  15,  40)
       Mesh   11
       Max CFL number:  0.15E-01 at (  19,  11,  46)
       Max divergence:  0.12E-05 at (   7,   8,   5)
       Min divergence: -0.12E-05 at (  17,   9,  18)
       Max VN number:   0.14E-01 at (  16,  10,  55)
       Mesh   12
       Max CFL number:  0.15E-01 at (   5,   5,  59)
       Max divergence:  0.13E-05 at (  11,  11,   3)
       Min divergence: -0.12E-05 at (  14,   5,  13)
       Max VN number:   0.13E-01 at (   9,   9,  19)
       Mesh   13
       Max CFL number:  0.15E-01 at (  15,  13,  58)
       Max divergence:  0.12E-05 at (  11,   5,  68)
       Min divergence: -0.12E-05 at (   5,  14,  29)
       Max VN number:   0.13E-01 at (   5,  14,  29)
       Mesh   14
       Max CFL number:  0.15E-01 at (  14,  16,  58)
       Max divergence:  0.12E-05 at (   2,  13,  17)
       Min divergence: -0.13E-05 at (  15,  10,  68)
       Max VN number:   0.14E-01 at (  14,   7,  59)
       Mesh   15
       Max CFL number:  0.15E-01 at (   8,  11,  60)
       Max divergence:  0.12E-05 at (   8,  11,  59)
       Min divergence: -0.12E-05 at (   7,   2,  17)
       Max VN number:   0.14E-01 at (  15,   2,  26)
       Mesh   16
       Max CFL number:  0.15E-01 at (  19,  11,  46)
       Max divergence:  0.12E-05 at (   6,   2,  38)
       Min divergence: -0.12E-05 at (  17,   9,  21)
       Max VN number:   0.14E-01 at (  14,   4,  64)
       Mesh   17
       Max CFL number:  0.15E-01 at (   6,   8,  20)
       Max divergence:  0.12E-05 at (  15,  10,  68)
       Min divergence: -0.12E-05 at (   9,   5,  39)
       Max VN number:   0.14E-01 at (  17,  12,  14)
       Mesh   18
       Max CFL number:  0.15E-01 at (   4,  15,  32)
       Max divergence:  0.13E-05 at (   2,  14,  36)
       Min divergence: -0.12E-05 at (   4,   3,  12)
       Max VN number:   0.13E-01 at (  13,  12,  31)
       Mesh   19
       Max CFL number:  0.15E-01 at (   4,   3,  10)
       Max divergence:  0.13E-05 at (   4,  15,  44)
       Min divergence: -0.12E-05 at (  11,  11,   6)
       Max VN number:   0.14E-01 at (  10,   3,  43)
       Mesh   20
       Max CFL number:  0.15E-01 at (  19,   6,  64)
       Max divergence:  0.12E-05 at (  10,   5,  40)
       Min divergence: -0.13E-05 at (   2,  10,   7)
       Max VN number:   0.13E-01 at (  13,  12,  61)
       Mesh   21
       Max CFL number:  0.15E-01 at (  10,   7,  65)
       Max divergence:  0.13E-05 at (  16,   4,  36)
       Min divergence: -0.11E-05 at (   9,  15,  46)
       Max VN number:   0.14E-01 at (   4,  15,   8)
       Mesh   22
       Max CFL number:  0.15E-01 at (   5,  13,  14)
       Max divergence:  0.13E-05 at (   7,  14,   8)
       Min divergence: -0.12E-05 at (  16,  10,  29)
       Max VN number:   0.14E-01 at (  16,  10,  29)
       Mesh   23
       Max CFL number:  0.16E-01 at (   2,  12,   3)
       Max divergence:  0.12E-05 at (  18,  11,  52)
       Min divergence: -0.13E-05 at (  13,   5,   5)
       Max VN number:   0.14E-01 at (  14,   7,  38)
       Mesh   24
       Max CFL number:  0.15E-01 at (   2,   7,  17)
       Max divergence:  0.12E-05 at (   6,  14,  67)
       Min divergence: -0.11E-05 at (   8,   2,  61)
       Max VN number:   0.13E-01 at (   7,  12,  31)
 
       Time Step       8   November 30, 2020  14:47:11
       Step Size:    0.417E-01 s, Total Time:       0.33 s
       Pressure Iterations:      1
       Maximum Velocity Error:  0.35E-03 on Mesh   7 at (  21   5  45)
       Maximum Pressure Error:  0.96E-04 on Mesh   5 at (  15   5  62)
       ---------------------------------------------------------------
       Mesh    1
       Max CFL number:  0.15E-01 at (   5,   8,  19)
       Max divergence:  0.12E-05 at (  13,   3,  48)
       Min divergence: -0.11E-05 at (  15,  11,  40)
       Max VN number:   0.14E-01 at (   7,   5,  50)
       Mesh    2
       Max CFL number:  0.15E-01 at (   7,  13,  62)
       Max divergence:  0.12E-05 at (  14,   7,  39)
       Min divergence: -0.13E-05 at (  15,   8,  28)
       Max VN number:   0.13E-01 at (  11,   5,  50)
       Mesh    3
       Max CFL number:  0.16E-01 at (   7,   4,  55)
       Max divergence:  0.13E-05 at (   5,   4,   3)
       Min divergence: -0.13E-05 at (   4,   2,  65)
       Max VN number:   0.14E-01 at (   4,   8,   6)
       Mesh    4
       Max CFL number:  0.15E-01 at (  10,  15,   6)
       Max divergence:  0.12E-05 at (  18,   4,  62)
       Min divergence: -0.12E-05 at (   7,   2,  18)
       Max VN number:   0.13E-01 at (   2,   2,  37)
       Mesh    5
       Max CFL number:  0.15E-01 at (  13,   6,  56)
       Max divergence:  0.12E-05 at (   3,  14,  71)
       Min divergence: -0.11E-05 at (   6,   7,  69)
       Max VN number:   0.13E-01 at (  10,  11,  71)
       Mesh    6
       Max CFL number:  0.16E-01 at (   6,   6,  40)
       Max divergence:  0.13E-05 at (   3,  10,  70)
       Min divergence: -0.12E-05 at (   8,  12,  30)
       Max VN number:   0.14E-01 at (   2,  13,  60)
       Mesh    7
       Max CFL number:  0.15E-01 at (  18,   9,  67)
       Max divergence:  0.14E-05 at (   2,  14,  53)
       Min divergence: -0.12E-05 at (   2,  13,   9)
       Max VN number:   0.14E-01 at (   3,  13,  40)
       Mesh    8
       Max CFL number:  0.15E-01 at (  11,  10,  66)
       Max divergence:  0.13E-05 at (  11,   8,  57)
       Min divergence: -0.11E-05 at (   4,  12,  71)
       Max VN number:   0.14E-01 at (  19,   2,  44)
       Mesh    9
       Max CFL number:  0.15E-01 at (  12,  13,  25)
       Max divergence:  0.13E-05 at (   8,   2,  14)
       Min divergence: -0.13E-05 at (   5,   2,  29)
       Max VN number:   0.14E-01 at (  11,   5,  20)
       Mesh   10
       Max CFL number:  0.15E-01 at (  10,  11,  68)
       Max divergence:  0.13E-05 at (  16,  10,  18)
       Min divergence: -0.13E-05 at (  12,   8,  17)
       Max VN number:   0.13E-01 at (  11,  15,  40)
       Mesh   11
       Max CFL number:  0.15E-01 at (  19,  11,  46)
       Max divergence:  0.12E-05 at (   7,   8,   5)
       Min divergence: -0.12E-05 at (  17,   9,  18)
       Max VN number:   0.14E-01 at (  16,  10,  55)
       Mesh   12
       Max CFL number:  0.15E-01 at (   5,   5,  59)
       Max divergence:  0.13E-05 at (  11,  11,   3)
       Min divergence: -0.12E-05 at (  14,   5,  13)
       Max VN number:   0.13E-01 at (   9,   9,  19)
       Mesh   13
       Max CFL number:  0.15E-01 at (  15,  13,  58)
       Max divergence:  0.12E-05 at (  11,   5,  68)
       Min divergence: -0.12E-05 at (   5,  14,  29)
       Max VN number:   0.13E-01 at (   5,  14,  29)
       Mesh   14
       Max CFL number:  0.15E-01 at (  11,  12,  44)
       Max divergence:  0.12E-05 at (   2,  13,  17)
       Min divergence: -0.13E-05 at (  15,  10,  68)
       Max VN number:   0.14E-01 at (  14,   7,  59)
       Mesh   15
       Max CFL number:  0.15E-01 at (   8,  11,  60)
       Max divergence:  0.12E-05 at (   8,  11,  59)
       Min divergence: -0.12E-05 at (   7,   2,  17)
       Max VN number:   0.14E-01 at (  15,   2,  26)
       Mesh   16
       Max CFL number:  0.15E-01 at (  19,  11,  46)
       Max divergence:  0.12E-05 at (   6,   2,  38)
       Min divergence: -0.12E-05 at (  17,   9,  21)
       Max VN number:   0.14E-01 at (  14,   4,  64)
       Mesh   17
       Max CFL number:  0.15E-01 at (   6,   8,  20)
       Max divergence:  0.12E-05 at (  15,  10,  68)
       Min divergence: -0.12E-05 at (   9,   5,  39)
       Max VN number:   0.14E-01 at (  17,  12,  14)
       Mesh   18
       Max CFL number:  0.15E-01 at (   4,  15,  32)
       Max divergence:  0.13E-05 at (   2,  14,  36)
       Min divergence: -0.12E-05 at (   4,   3,  12)
       Max VN number:   0.13E-01 at (  13,  12,  31)
       Mesh   19
       Max CFL number:  0.15E-01 at (   4,   3,  10)
       Max divergence:  0.13E-05 at (   4,  15,  44)
       Min divergence: -0.12E-05 at (  11,  11,   6)
       Max VN number:   0.14E-01 at (  10,   3,  43)
       Mesh   20
       Max CFL number:  0.15E-01 at (  19,   6,  64)
       Max divergence:  0.12E-05 at (  10,   5,  40)
       Min divergence: -0.13E-05 at (   2,  10,   7)
       Max VN number:   0.13E-01 at (  13,  12,  61)
       Mesh   21
       Max CFL number:  0.15E-01 at (  10,   7,  65)
       Max divergence:  0.13E-05 at (  16,   4,  36)
       Min divergence: -0.11E-05 at (   9,  15,  46)
       Max VN number:   0.14E-01 at (   4,  15,   8)
       Mesh   22
       Max CFL number:  0.15E-01 at (   5,  13,  14)
       Max divergence:  0.13E-05 at (   7,  14,   8)
       Min divergence: -0.12E-05 at (  16,  10,  29)
       Max VN number:   0.14E-01 at (  16,  10,  29)
       Mesh   23
       Max CFL number:  0.16E-01 at (   2,  12,   3)
       Max divergence:  0.12E-05 at (  18,  11,  52)
       Min divergence: -0.13E-05 at (  13,   5,   5)
       Max VN number:   0.14E-01 at (  14,   7,  38)
       Mesh   24
[...]
       Mesh    4
       Max CFL number:  0.16E+00 at (  20,  16,  62)
       Max divergence:  0.13E-01 at (  17,  16,  61)
       Min divergence: -0.11E-01 at (  20,  15,  64)
       Max VN number:   0.45E-01 at (  20,  16,  64)
       Mesh    5
       Max CFL number:  0.34E+00 at (  15,   5,  48)
       Max divergence:  0.92E-01 at (  15,   6,  53)
       Min divergence: -0.47E-01 at (  15,   5,  54)
       Max VN number:   0.16E+00 at (  20,   5,  61)
       Radiation Loss to Boundaries:        -0.004 kW
       Mesh    6
       Max CFL number:  0.45E+00 at (  20,  16,  62)
       Max divergence:  0.67E-01 at (   3,   5,  49)
       Min divergence: -0.70E-01 at (  15,  16,  61)
       Max VN number:   0.18E+00 at (  10,   5,  60)
       Radiation Loss to Boundaries:        -0.003 kW
       Mesh    7
       Max CFL number:  0.32E+00 at (   1,  16,  62)
       Max divergence:  0.37E-01 at (  12,   5,  41)
       Min divergence: -0.36E-01 at (  14,   5,  41)
       Max VN number:   0.12E+00 at (  20,   5,  62)
       Radiation Loss to Boundaries:         0.001 kW
       Mesh    8
       Max CFL number:  0.33E+00 at (  12,   8,  62)
       Max divergence:  0.58E-01 at (  11,  12,  63)
       Min divergence: -0.66E-01 at (  16,   3,  62)
       Max VN number:   0.11E+00 at (  16,  10,  62)
       Radiation Loss to Boundaries:        -0.002 kW
       Mesh    9
       Max CFL number:  0.37E+00 at (  19,  16,  62)
       Max divergence:  0.56E-01 at (  20,  16,  61)
       Min divergence: -0.75E-01 at (  20,  16,  62)
       Max VN number:   0.19E+00 at (  15,  16,  62)
       Mesh   10
       Max CFL number:  0.57E+00 at (  12,  15,  62)
       Max divergence:  0.17E+00 at (  17,  15,  61)
       Min divergence: -0.18E+00 at (  16,  13,  61)
       Max VN number:   0.17E+00 at (  20,  16,  62)
       Total Heat Release Rate:              0.012 kW
       Radiation Loss to Boundaries:         0.003 kW
       Mesh   11
       Max CFL number:  0.52E+00 at (   5,  12,  62)
       Max divergence:  0.11E+00 at (  11,  13,  61)
       Min divergence: -0.16E+00 at (  10,   6,  62)
       Max VN number:   0.17E+00 at (   1,  16,  62)
       Total Heat Release Rate:              0.008 kW
       Radiation Loss to Boundaries:         0.002 kW
       Mesh   12
       Max CFL number:  0.54E+00 at (   5,  16,  62)
       Max divergence:  0.49E-01 at (   5,  16,  60)
       Min divergence: -0.83E-01 at (   8,  14,  62)
       Max VN number:   0.12E+00 at (  17,   3,  61)
       Mesh   13
       Max CFL number:  0.59E+00 at (  19,  13,  62)
       Max divergence:  0.14E+00 at (  17,  14,  62)
       Min divergence: -0.11E+00 at (  15,  15,  62)
       Max VN number:   0.22E+00 at (  15,  16,  61)
       Mesh   14
       Max CFL number:  0.89E+00 at (  15,  11,  52)
       Max divergence:  0.25E+01 at (  16,  10,  12)
       Min divergence: -0.21E+01 at (  14,   9,  13)
       Max VN number:   0.41E+00 at (  11,   9,  62)
       Total Heat Release Rate:             25.803 kW
       Radiation Loss to Boundaries:       -11.100 kW
       Mesh   15
       Max CFL number:  0.54E+00 at (  20,   4,  62)
       Max divergence:  0.24E+01 at (   4,   8,  12)
       Min divergence: -0.20E+01 at (   4,   7,  13)
       Max VN number:   0.24E+00 at (   3,  11,  62)
       Total Heat Release Rate:             17.316 kW
       Radiation Loss to Boundaries:        -5.469 kW
       Mesh   16
       Max CFL number:  0.57E+00 at (   6,   1,  62)
       Max divergence:  0.15E+00 at (  11,   8,  63)
       Min divergence: -0.17E+00 at (  11,   8,  62)
       Max VN number:   0.17E+00 at (  11,   8,  62)
       Radiation Loss to Boundaries:        -0.002 kW
       Mesh   17
       Max CFL number:  0.49E+00 at (  19,   7,  62)
       Max divergence:  0.22E+00 at (  16,  10,  62)
       Min divergence: -0.11E+00 at (  15,  10,  62)
       Max VN number:   0.21E+00 at (  15,   1,  62)
       Radiation Loss to Boundaries:        -0.003 kW
       Mesh   18
       Max CFL number:  0.64E+00 at (  19,   5,  61)
       Max divergence:  0.19E+01 at (  10,   6,  12)
       Min divergence: -0.12E+01 at (  14,   4,  13)
       Max VN number:   0.20E+00 at (  19,   4,  62)
       Total Heat Release Rate:             13.177 kW
       Radiation Loss to Boundaries:        -2.816 kW
       Mesh   19
       Max CFL number:  0.58E+00 at (   7,   1,  62)
       Max divergence:  0.20E+01 at (   5,   2,  12)
       Min divergence: -0.16E+01 at (   5,   3,  13)
       Max VN number:   0.20E+00 at (   3,   2,  62)
       Total Heat Release Rate:             10.275 kW
       Radiation Loss to Boundaries:        -3.166 kW
       Mesh   20
       Max CFL number:  0.47E+00 at (   1,   7,  62)
       Max divergence:  0.13E+00 at (  11,   9,  63)
       Min divergence: -0.15E+00 at (  11,   9,  62)
       Max VN number:   0.15E+00 at (  11,   4,  62)
       Radiation Loss to Boundaries:        -0.001 kW
       Mesh   21
       Max CFL number:  0.51E+00 at (  16,  13,  62)
       Max divergence:  0.13E+00 at (  18,   9,  63)
       Min divergence: -0.16E+00 at (  15,  10,  62)
       Max VN number:   0.18E+00 at (  15,   2,  62)
       Radiation Loss to Boundaries:        -0.003 kW
       Mesh   22
       Max CFL number:  0.45E+00 at (  20,   3,  62)
       Max divergence:  0.19E+00 at (   8,  12,  61)
       Min divergence: -0.15E+00 at (   8,  12,  62)
       Max VN number:   0.16E+00 at (   8,  12,  61)
       Mesh   23
       Max CFL number:  0.45E+00 at (   1,   2,  62)
       Max divergence:  0.14E+00 at (   2,  13,  61)
       Min divergence: -0.15E+00 at (  15,   9,  62)
       Max VN number:   0.16E+00 at (   2,  10,  62)
       Radiation Loss to Boundaries:        -0.001 kW
       Mesh   24
       Max CFL number:  0.47E+00 at (  13,   8,  62)
       Max divergence:  0.21E+00 at (  14,   8,  61)
       Min divergence: -0.15E+00 at (  14,   8,  60)
       Max VN number:   0.20E+00 at (  12,   8,  62)
       Radiation Loss to Boundaries:        -0.002 kW
 
       Time Step    1300   November 30, 2020  15:51:18
       Step Size:    0.930E-02 s, Total Time:      19.37 s
       Pressure Iterations:      3
       Maximum Velocity Error:  0.22E-01 on Mesh  14 at (  19  17  52)
       Maximum Pressure Error:  0.16E+03 on Mesh  14 at (  16  10  49)
       ---------------------------------------------------------------
       Mesh    1
       Max CFL number:  0.13E-02 at (   7,   8,  14)
       Max divergence:  0.55E-06 at (  13,  12,  59)
       Min divergence: -0.56E-06 at (  12,  13,  12)
       Max VN number:   0.14E-02 at (  14,   6,  12)
       Mesh    2
       Max CFL number:  0.12E-02 at (  17,  16,  59)
       Max divergence:  0.52E-06 at (  11,  10,  13)
       Min divergence: -0.54E-06 at (   2,  13,  13)
       Max VN number:   0.14E-02 at (   3,   2,  59)
       Mesh    3
       Max CFL number:  0.24E-02 at (  20,  16,  33)
       Max divergence:  0.57E-06 at (  19,  14,   9)
       Min divergence: -0.64E-06 at (  20,  13,  68)
       Max VN number:   0.14E-02 at (   9,  14,  68)
       Mesh    4
       Max CFL number:  0.90E-01 at (  20,  16,  64)
       Max divergence:  0.55E-02 at (  17,  16,  68)
       Min divergence: -0.10E-01 at (  18,  16,  68)
       Max VN number:   0.31E-01 at (  19,  16,  62)
       Mesh    5
       Max CFL number:  0.38E+00 at (  15,  11,  62)
       Max divergence:  0.63E-01 at (  15,   6,  46)
       Min divergence: -0.74E-01 at (  15,  14,  62)
       Max VN number:   0.19E+00 at (  15,   5,  55)
       Radiation Loss to Boundaries:        -0.005 kW
       Mesh    6
       Max CFL number:  0.37E+00 at (  12,   5,  53)
       Max divergence:  0.60E-01 at (  11,   5,  39)
       Min divergence: -0.56E-01 at (   2,  15,  62)
       Max VN number:   0.15E+00 at (  14,   5,  62)
       Radiation Loss to Boundaries:        -0.005 kW
       Mesh    7
       Max CFL number:  0.31E+00 at (  15,   9,  62)
       Max divergence:  0.42E-01 at (   2,   5,  40)
       Min divergence: -0.69E-01 at (   2,   5,  61)
       Max VN number:   0.20E+00 at (   2,   5,  62)
       Mesh    8
       Max CFL number:  0.38E+00 at (  14,   5,  62)
       Max divergence:  0.13E+00 at (  11,  15,  63)
       Min divergence: -0.15E+00 at (  11,  15,  62)
       Max VN number:   0.18E+00 at (   7,   5,  62)
       Radiation Loss to Boundaries:        -0.002 kW
       Mesh    9
       Max CFL number:  0.34E+00 at (  16,  13,  60)
       Max divergence:  0.72E-01 at (  16,  16,  53)
       Min divergence: -0.66E-01 at (  19,   1,  62)
       Max VN number:   0.18E+00 at (  15,  13,  62)
       Radiation Loss to Boundaries:        -0.002 kW
       Mesh   10
       Max CFL number:  0.42E+00 at (  14,  12,  62)
       Max divergence:  0.15E+00 at (  13,   7,  61)
       Min divergence: -0.15E+00 at (   4,  13,  61)
       Max VN number:   0.16E+00 at (  12,  16,  62)
       Total Heat Release Rate:              0.012 kW
       Radiation Loss to Boundaries:         0.002 kW
       Mesh   11
       Max CFL number:  0.40E+00 at (   5,  16,  62)
       Max divergence:  0.12E+00 at (   3,   8,  61)
       Min divergence: -0.11E+00 at (  10,  16,  62)
       Max VN number:   0.12E+00 at (  16,  12,  62)
       Total Heat Release Rate:              0.009 kW
       Mesh   12
       Max CFL number:  0.47E+00 at (   2,  11,  61)
       Max divergence:  0.13E+00 at (  19,   6,  61)
       Min divergence: -0.14E+00 at (   2,  11,  61)
       Max VN number:   0.15E+00 at (  15,   1,  61)
       Radiation Loss to Boundaries:        -0.004 kW
       Mesh   13
       Max CFL number:  0.45E+00 at (  19,  14,  62)
       Max divergence:  0.13E+00 at (  15,   5,  62)
       Min divergence: -0.14E+00 at (  20,   2,  62)
       Max VN number:   0.24E+00 at (  15,  10,  62)
       Mesh   14
       Max CFL number:  0.87E+00 at (  17,  10,  48)
       Max divergence:  0.26E+01 at (  19,  13,  12)
       Min divergence: -0.30E+01 at (  19,  13,  13)
       Max VN number:   0.22E+00 at (  17,  13,  62)
       Total Heat Release Rate:             27.337 kW
       Radiation Loss to Boundaries:       -12.478 kW
       Mesh   15
       Max CFL number:  0.67E+00 at (   1,  14,  50)
       Max divergence:  0.22E+01 at (   8,   3,  12)
       Min divergence: -0.26E+01 at (   5,  12,  13)
       Max VN number:   0.22E+00 at (   2,   9,  62)
       Total Heat Release Rate:             17.917 kW
       Radiation Loss to Boundaries:        -5.412 kW
       Mesh   16
       Max CFL number:  0.33E+00 at (   6,   8,  62)
       Max divergence:  0.75E-01 at (  11,  11,  63)
       Min divergence: -0.11E+00 at (  12,   6,  62)
       Max VN number:   0.99E-01 at (  15,   7,  62)
       Mesh   17
       Max CFL number:  0.41E+00 at (  19,   2,  62)
       Max divergence:  0.10E+00 at (  16,   4,  62)
       Min divergence: -0.92E-01 at (  15,  12,  43)
       Max VN number:   0.22E+00 at (  15,   1,  62)
       Mesh   18
       Max CFL number:  0.56E+00 at (  13,   4,  62)
       Max divergence:  0.24E+01 at (  15,   2,  12)
       Min divergence: -0.20E+01 at (  15,   2,  13)
       Max VN number:   0.23E+00 at (  10,   3,  62)
       Total Heat Release Rate:             13.948 kW
       Radiation Loss to Boundaries:        -3.122 kW
       Mesh   19
       Max CFL number:  0.47E+00 at (   2,   2,  53)
       Max divergence:  0.21E+01 at (   9,   7,  12)
       Min divergence: -0.19E+01 at (   4,   5,  13)
       Max VN number:   0.15E+00 at (   2,   2,  52)
       Total Heat Release Rate:             10.569 kW
       Radiation Loss to Boundaries:        -2.529 kW
       Mesh   20
       Max CFL number:  0.37E+00 at (   4,  11,  62)
       Max divergence:  0.72E-01 at (  11,   6,  63)
       Min divergence: -0.10E+00 at (  11,   6,  62)
       Max VN number:   0.10E+00 at (  13,   6,  61)
       Mesh   21
       Max CFL number:  0.39E+00 at (  15,  13,  62)
       Max divergence:  0.97E-01 at (  18,   9,  63)
       Min divergence: -0.12E+00 at (  15,  10,  57)
       Max VN number:   0.14E+00 at (  15,   7,  62)
       Radiation Loss to Boundaries:        -0.002 kW
       Mesh   22
       Max CFL number:  0.41E+00 at (   6,   7,  62)
       Max divergence:  0.12E+00 at (   1,  13,  61)
       Min divergence: -0.13E+00 at (   7,  10,  62)
       Max VN number:   0.13E+00 at (  20,  11,  62)
       Mesh   23
       Max CFL number:  0.41E+00 at (   7,  13,  62)
       Max divergence:  0.20E+00 at (  12,  13,  61)
       Min divergence: -0.27E+00 at (  10,  15,  60)
       Max VN number:   0.17E+00 at (  12,  13,  61)
       Radiation Loss to Boundaries:        -0.002 kW
       Mesh   24
       Max CFL number:  0.30E+00 at (   2,   3,  62)
       Max divergence:  0.12E+00 at (   3,   9,  61)
       Min divergence: -0.17E+00 at (   5,   9,  62)
       Max VN number:   0.12E+00 at (  11,   6,  62)
       Radiation Loss to Boundaries:        -0.002 kW
 
       Time Step    1367   November 30, 2020  15:54:06
       Step Size:    0.143E-02 s, Total Time:      20.00 s
       Pressure Iterations:      1
       Maximum Velocity Error:  0.17E-01 on Mesh  14 at (  21  13  12)
       Maximum Pressure Error:  0.42E+03 on Mesh  14 at (  13   9  12)
       ---------------------------------------------------------------
       Mesh    1
       Max CFL number:  0.19E-03 at (   7,   8,  14)
       Max divergence:  0.54E-06 at (  13,  12,  59)
       Min divergence: -0.54E-06 at (  12,  13,  12)
       Max VN number:   0.21E-03 at (  14,   6,  12)
       Mesh    2
       Max CFL number:  0.18E-03 at (  17,  16,  59)
       Max divergence:  0.50E-06 at (  11,  10,  13)
       Min divergence: -0.53E-06 at (   2,  13,  13)
       Max VN number:   0.21E-03 at (   3,   2,  59)
       Mesh    3
       Max CFL number:  0.38E-03 at (  19,  16,  53)
       Max divergence:  0.58E-06 at (  19,  14,   9)
       Min divergence: -0.77E-06 at (  20,  13,  68)
       Max VN number:   0.22E-03 at (   9,  14,  68)
       Mesh    4
       Max CFL number:  0.26E-01 at (  20,  15,  63)
       Max divergence:  0.23E-01 at (  19,  16,  65)
       Min divergence: -0.41E-01 at (  20,  15,  63)
       Max VN number:   0.92E-02 at (  20,  15,  63)
       Mesh    5
       Max CFL number:  0.48E-01 at (  15,  16,  62)
       Max divergence:  0.33E-01 at (  16,  12,  35)
       Min divergence: -0.64E-01 at (  15,  12,  36)
       Max VN number:   0.21E-01 at (  20,   5,  50)
       Radiation Loss to Boundaries:        -0.005 kW
       Mesh    6
       Max CFL number:  0.47E-01 at (   5,  14,  62)
       Max divergence:  0.52E-01 at (   1,   5,  46)
       Min divergence: -0.46E-01 at (   4,  11,  61)
       Max VN number:   0.18E-01 at (   1,   5,  49)
       Radiation Loss to Boundaries:        -0.005 kW
       Mesh    7
       Max CFL number:  0.46E-01 at (  18,  16,  62)
       Max divergence:  0.58E-01 at (  14,  13,  61)
       Min divergence: -0.42E-01 at (  19,  14,  62)
       Max VN number:   0.17E-01 at (   9,   5,  47)
       Mesh    8
       Max CFL number:  0.48E-01 at (  13,   5,  62)
       Max divergence:  0.91E-01 at (  19,   4,  58)
       Min divergence: -0.11E+00 at (  12,  15,  62)
       Max VN number:   0.23E-01 at (  10,   5,  62)
       Radiation Loss to Boundaries:        -0.002 kW
       Mesh    9
       Max CFL number:  0.57E-01 at (  20,   8,  62)
       Max divergence:  0.80E-01 at (  17,  15,  58)
       Min divergence: -0.95E-01 at (  15,   3,  35)
       Max VN number:   0.27E-01 at (  15,  15,  62)
       Radiation Loss to Boundaries:        -0.002 kW
       Mesh   10
       Max CFL number:  0.88E-01 at (  15,  15,  62)
       Max divergence:  0.18E+00 at (  18,  16,  61)
       Min divergence: -0.15E+00 at (   6,  10,  62)
       Max VN number:   0.26E-01 at (  18,  16,  62)
       Total Heat Release Rate:              0.013 kW
       Mesh   11
       Max CFL number:  0.74E-01 at (  12,  13,  62)
       Max divergence:  0.13E+00 at (  10,  16,  12)
       Min divergence: -0.11E+00 at (  11,  12,  62)
       Max VN number:   0.17E-01 at (   1,  15,  62)
       Total Heat Release Rate:              0.011 kW
       Mesh   12
       Max CFL number:  0.60E-01 at (   5,  10,  62)
       Max divergence:  0.75E-01 at (  15,   9,  63)
       Min divergence: -0.78E-01 at (  12,   1,  62)
       Max VN number:   0.18E-01 at (  15,   3,  61)
       Radiation Loss to Boundaries:        -0.002 kW
       Mesh   13
       Max CFL number:  0.81E-01 at (  20,  14,  62)
       Max divergence:  0.16E+00 at (  16,  14,  58)
       Min divergence: -0.17E+00 at (  19,   2,  62)
       Max VN number:   0.30E-01 at (  15,  10,  61)
       Radiation Loss to Boundaries:        -0.005 kW
       Mesh   14
       Max CFL number:  0.13E+00 at (  16,  10,  41)
       Max divergence:  0.27E+01 at (  20,  14,  12)
       Min divergence: -0.22E+01 at (  18,  10,  13)
       Max VN number:   0.52E-01 at (  20,   7,  62)
       Total Heat Release Rate:             29.429 kW
       Radiation Loss to Boundaries:       -13.000 kW
       Mesh   15
       Max CFL number:  0.10E+00 at (  10,   6,  62)
       Max divergence:  0.28E+01 at (   5,   9,  12)
       Min divergence: -0.20E+01 at (   6,   8,  13)
       Max VN number:   0.51E-01 at (   1,   7,  62)
       Total Heat Release Rate:             19.029 kW
       Radiation Loss to Boundaries:        -4.949 kW
       Mesh   16
       Max CFL number:  0.61E-01 at (   3,  15,  62)
       Max divergence:  0.82E-01 at (  11,  13,  63)
       Min divergence: -0.14E+00 at (  11,  13,  62)
       Max VN number:   0.15E-01 at (  11,  13,  62)
       Mesh   17
       Max CFL number:  0.75E-01 at (  20,   1,  62)
       Max divergence:  0.12E+00 at (  15,   8,  62)
       Min divergence: -0.16E+00 at (  20,   6,  61)
       Max VN number:   0.25E-01 at (  15,  16,  62)
       Radiation Loss to Boundaries:        -0.002 kW
       Mesh   18
       Max CFL number:  0.87E-01 at (  18,  12,  62)
       Max divergence:  0.30E+01 at (  11,   1,  12)
       Min divergence: -0.25E+01 at (  11,   1,  13)
       Max VN number:   0.24E-01 at (  19,   8,  62)
       Total Heat Release Rate:             15.373 kW
       Radiation Loss to Boundaries:        -3.536 kW
       Mesh   19
       Max CFL number:  0.88E-01 at (  13,   1,  62)
       Max divergence:  0.22E+01 at (   4,   8,  12)
       Min divergence: -0.16E+01 at (   5,   1,  14)
       Max VN number:   0.29E-01 at (  12,   6,  62)
       Total Heat Release Rate:             11.732 kW
       Radiation Loss to Boundaries:        -2.990 kW
       Mesh   20
       Max CFL number:  0.61E-01 at (   7,   1,  62)
       Max divergence:  0.88E-01 at (  11,   3,  63)
       Min divergence: -0.13E+00 at (  11,   3,  62)
       Max VN number:   0.18E-01 at (  14,   6,  61)
       Mesh   21
       Max CFL number:  0.67E-01 at (  15,  11,  62)
       Max divergence:  0.12E+00 at (  14,   9,  62)
       Min divergence: -0.23E+00 at (  15,   9,  62)
       Max VN number:   0.29E-01 at (  15,   6,  62)
       Radiation Loss to Boundaries:        -0.002 kW
       Mesh   22
       Max CFL number:  0.74E-01 at (  13,   5,  62)
       Max divergence:  0.22E+00 at (  17,  11,  61)
       Min divergence: -0.40E+00 at (   8,   9,  62)
       Max VN number:   0.24E-01 at (   9,  13,  61)
       Radiation Loss to Boundaries:        -0.003 kW
       Mesh   23
       Max CFL number:  0.74E-01 at (  12,   9,  62)
       Max divergence:  0.12E+00 at (   5,   9,  63)
       Min divergence: -0.14E+00 at (   5,  15,  62)
       Max VN number:   0.32E-01 at (  12,   9,  62)
       Mesh   24
       Max CFL number:  0.41E-01 at (   1,   2,  62)
       Max divergence:  0.12E+00 at (   6,  11,  61)
       Min divergence: -0.10E+00 at (  11,  12,  60)
       Max VN number:   0.18E-01 at (   5,  11,  62)
       Radiation Loss to Boundaries:        -0.001 kW
 


 Time Stepping Wall Clock Time (s):     4040.375
 Total Elapsed Wall Clock Time (s):     4055.734

STOP: FDS completed successfully (CHID: wall_test)
